# generated using pymatgen
data_Y8Ge8Se0.66666667S1.66666667O24Lv1.66666667
_symmetry_space_group_name_H-M  'P 41 21 2'
_cell_length_a   6.80399000
_cell_length_b   6.80399000
_cell_length_c   12.37550000
_cell_angle_alpha   90.00000000
_cell_angle_beta   90.00000000
_cell_angle_gamma   90.00000000
_symmetry_Int_Tables_number   92
_chemical_formula_structural
Y8Ge8Se0.66666667S1.66666667O24Lv1.66666667
_chemical_formula_sum
'Y8 Ge8 Se0.66666667 S1.66666667 O24 Lv1.66666667'
_cell_volume   572.91486115
_cell_formula_units_Z   1
loop_
 _symmetry_equiv_pos_site_id
 _symmetry_equiv_pos_as_xyz
  1  'x, y, z'
  2  '-y+1/2, x+1/2, z+1/4'
  3  '-x, -y, z+1/2'
  4  'y+1/2, -x+1/2, z+3/4'
  5  'x+1/2, -y+1/2, -z+3/4'
  6  '-y, -x, -z+1/2'
  7  '-x+1/2, y+1/2, -z+1/4'
  8  'y, x, -z'
loop_
 _atom_site_type_symbol
 _atom_site_label
 _atom_site_symmetry_multiplicity
 _atom_site_fract_x
 _atom_site_fract_y
 _atom_site_fract_z
 _atom_site_occupancy
  Y  Y0  8  0.12180000  0.65000000  0.13510000  1.0
  Ge  Ge1  8  0.09820000  0.84500000  0.62090000  1.0
  O  O2  8  0.02830000  0.92460000  0.37490000  1.0
  O  O3  8  0.06350000  0.33680000  0.07120000  1.0
  O  O4  8  0.14300000  0.68890000  0.95440000  1.0
  S+  S5  4  0.19600000  0.80400000  0.75000000  0.4166666666666667
  Se+  Se6  4  0.19600000  0.80400000  0.75000000
  0.16666666666666666
  Lv+  Lv7  4  0.19600000  0.80400000  0.75000000
  0.4166666666666667
