# generated using pymatgen
data_Er4Sn0.5H40C21Fl2Ge0.5Te2Se3S0.5N4O26.5
_symmetry_space_group_name_H-M  'P 1 2/n 1'
_cell_length_a   9.16540000
_cell_length_b   8.98410000
_cell_length_c   13.16050000
_cell_angle_alpha   90.00000000
_cell_angle_beta   97.18500000
_cell_angle_gamma   90.00000000
_symmetry_Int_Tables_number   13
_chemical_formula_structural
Er4Sn0.5H40C21Fl2Ge0.5Te2Se3S0.5N4O26.5
_chemical_formula_sum
'Er4 Sn0.5 H40 C21 Fl2 Ge0.5 Te2 Se3 S0.5 N4 O26.5'
_cell_volume   1075.16377532
_cell_formula_units_Z   1
loop_
 _symmetry_equiv_pos_site_id
 _symmetry_equiv_pos_as_xyz
  1  'x, y, z'
  2  '-x, -y, -z'
  3  '-x+1/2, y, -z+1/2'
  4  'x+1/2, -y, z+1/2'
loop_
 _atom_site_type_symbol
 _atom_site_label
 _atom_site_symmetry_multiplicity
 _atom_site_fract_x
 _atom_site_fract_y
 _atom_site_fract_z
 _atom_site_occupancy
  Er  Er0  2  0.25000000  0.20763000  0.75000000  1.0
  Er  Er1  2  0.25000000  0.24808000  0.25000000  1.0
  H  H2  4  0.02990000  0.63840000  0.53890000  1.0
  H  H3  4  0.08960000  0.54920000  0.82080000  1.0
  H  H4  4  0.10580000  0.67640000  0.38740000  1.0
  H  H5  4  0.10960000  0.69190000  0.02630000  1.0
  H  H6  4  0.11900000  0.78780000  0.54510000  1.0
  H  H7  4  0.16010000  0.69740000  0.14460000  1.0
  H  H8  4  0.18740000  0.55090000  0.43200000  1.0
  H  H9  4  0.19360000  0.64120000  0.59060000  1.0
  H  H10  4  0.19860000  0.82910000  0.07450000  1.0
  H  H11  4  0.19940000  0.15730000  0.00400000  1.0
  S+  S12  4  0.09380000  0.44440000  0.25310000  0.125
  Te+  Te13  4  0.09380000  0.44440000  0.25310000  0.25
  Se+  Se14  4  0.09380000  0.44440000  0.25310000  0.625
  C  C15  4  0.02710000  0.50210000  0.76960000  1.0
  C  C16  4  0.03420000  0.99270000  0.30130000  1.0
  C  C17  4  0.03900000  0.94690000  0.80120000  1.0
  C  C18  4  0.18620000  0.72330000  0.07840000  1.0
  C  C19  4  0.22570000  0.25670000  0.99870000  1.0
  Fl+  Fl20  4  0.12510000  0.68190000  0.53660000  0.5
  Ge+  Ge21  4  0.12510000  0.68190000  0.53660000  0.125
  Sn+  Sn22  4  0.12510000  0.68190000  0.53660000  0.125
  C+  C23  4  0.12510000  0.68190000  0.53660000  0.25
  Te+  Te24  4  0.15380000  0.05180000  0.33690000  0.25
  O+  O25  4  0.15380000  0.05180000  0.33690000  0.625
  Se+  Se26  4  0.15380000  0.05180000  0.33690000  0.125
  N  N27  4  0.17540000  0.64880000  0.43710000  1.0
  O  O28  4  0.02420000  0.15920000  0.16120000  1.0
  O  O29  4  0.02910000  0.11100000  0.65870000  1.0
  O  O30  4  0.07400000  0.39030000  0.73020000  1.0
  O  O31  4  0.15620000  0.00880000  0.83780000  1.0
  O  O32  4  0.23960000  0.30670000  0.91240000  1.0
  O  O33  4  0.24530000  0.33360000  0.07940000  1.0
