# generated using pymatgen
data_Zn4.5Cd0.5Hg2.5Cn0.5Ge1H8Pb1C2O20
_symmetry_space_group_name_H-M  'P n n 2'
_cell_length_a   8.10340000
_cell_length_b   10.55610000
_cell_length_c   5.03240000
_cell_angle_alpha   90.00000000
_cell_angle_beta   90.00000000
_cell_angle_gamma   90.00000000
_symmetry_Int_Tables_number   34
_chemical_formula_structural   Zn4.5Cd0.5Hg2.5Cn0.5Ge1H8Pb1C2O20
_chemical_formula_sum   'Zn4.5 Cd0.5 Hg2.5 Cn0.5 Ge1 H8 Pb1 C2 O20'
_cell_volume   430.47300944
_cell_formula_units_Z   1
loop_
 _symmetry_equiv_pos_site_id
 _symmetry_equiv_pos_as_xyz
  1  'x, y, z'
  2  '-x, -y, z'
  3  '-x+1/2, y+1/2, z+1/2'
  4  'x+1/2, -y+1/2, z+1/2'
loop_
 _atom_site_type_symbol
 _atom_site_label
 _atom_site_symmetry_multiplicity
 _atom_site_fract_x
 _atom_site_fract_y
 _atom_site_fract_z
 _atom_site_occupancy
  Hg+  Hg0  4  0.24701000  0.14167000  0.00000000  0.625
  Zn+  Zn1  4  0.24701000  0.14167000  0.00000000  0.125
  Cn+  Cn2  4  0.24701000  0.14167000  0.00000000  0.125
  Cd+  Cd3  4  0.24701000  0.14167000  0.00000000  0.125
  Zn  Zn4  4  0.17140000  0.82872000  0.99190000  1.0
  H  H5  4  0.04000000  0.57000000  0.08000000  1.0
  H  H6  4  0.13700000  0.45500000  0.63400000  1.0
  Pb+  Pb7  4  0.03365000  0.14317000  0.50540000  0.25
  Ge+  Ge8  4  0.03365000  0.14317000  0.50540000  0.25
  C+  C9  4  0.03365000  0.14317000  0.50540000  0.5
  O  O10  4  0.03560000  0.15690000  0.18660000  1.0
  O  O11  4  0.11240000  0.77230000  0.63630000  1.0
  O  O12  4  0.18230000  0.46900000  0.53440000  1.0
  O  O13  4  0.21020000  0.18150000  0.62530000  1.0
  O  O14  2  0.00000000  0.00000000  0.60590000  1.0
  O  O15  2  0.00000000  0.50000000  0.99900000  1.0
