# generated using pymatgen
data_Hf0.33333333Ti0.33333333Rf1Zr0.33333333Al4Cl3.66666667Ts1I2.66666667Br8F0.
_symmetry_space_group_name_H-M  'P n n 2'
_cell_length_a   6.27400000
_cell_length_b   12.80100000
_cell_length_c   8.67600000
_cell_angle_alpha   90.00000000
_cell_angle_beta   90.00000000
_cell_angle_gamma   90.00000000
_symmetry_Int_Tables_number   34
_chemical_formula_structural
;
Hf0.33333333Ti0.33333333Rf1Zr0.33333333Al4Cl3.66666667Ts1I2.66666667Br
8F0.66666667
;
_chemical_formula_sum
;
Hf0.33333333 Ti0.33333333 Rf1 Zr0.33333333 Al4 Cl3.66666667 Ts1
I2.66666667 Br8 F0.66666667
;
_cell_volume   696.79970042
_cell_formula_units_Z   1
loop_
 _symmetry_equiv_pos_site_id
 _symmetry_equiv_pos_as_xyz
  1  'x, y, z'
  2  '-x, -y, z'
  3  '-x+1/2, y+1/2, z+1/2'
  4  'x+1/2, -y+1/2, z+1/2'
loop_
 _atom_type_symbol
 _atom_type_oxidation_number
  Hf0+  0.0
  Zr0+  0.0
  Ti0+  0.0
  Al0+  0.0
  I0+  0.0
  Br0+  0.0
  Cl0+  0.0
  F0+  0.0
  Rf0+  0.0
  Ts0+  0.0
loop_
 _atom_site_type_symbol
 _atom_site_label
 _atom_site_symmetry_multiplicity
 _atom_site_fract_x
 _atom_site_fract_y
 _atom_site_fract_z
 _atom_site_occupancy
  Hf0+  Hf0  2  0.00000000  0.00000000  0.00000000
  0.16666666666666666
  Ti0+  Ti1  2  0.00000000  0.00000000  0.00000000
  0.16666666666666666
  Rf0+  Rf2  2  0.00000000  0.00000000  0.00000000  0.5
  Zr0+  Zr3  2  0.00000000  0.00000000  0.00000000
  0.16666666666666666
  Al0+  Al4  4  0.10500000  0.31350000  0.50100000  1.0
  Cl0+  Cl5  4  0.23490000  0.17960000  0.99100000
  0.8333333333333334
  Ts0+  Ts6  4  0.23490000  0.17960000  0.99100000
  0.16666666666666666
  I0+  I7  4  0.24300000  0.40750000  0.69360000  0.6666666666666666
  F0+  F8  4  0.24300000  0.40750000  0.69360000
  0.16666666666666666
  Ts0+  Ts9  4  0.24300000  0.40750000  0.69360000
  0.08333333333333333
  Cl0+  Cl10  4  0.24300000  0.40750000  0.69360000
  0.08333333333333333
  Br0+  Br11  4  0.21310000  0.14590000  0.48700000  1.0
  Br0+  Br12  4  0.23880000  0.40650000  0.28040000  1.0
