# generated using pymatgen
data_Po0.5B12Te3.5H8Pb8Se0.5O22.5Lv3
_symmetry_space_group_name_H-M  'P n n 2'
_cell_length_a   11.58240000
_cell_length_b   11.76640000
_cell_length_c   4.56570000
_cell_angle_alpha   90.00000000
_cell_angle_beta   90.00000000
_cell_angle_gamma   90.00000000
_symmetry_Int_Tables_number   34
_chemical_formula_structural   Po0.5B12Te3.5H8Pb8Se0.5O22.5Lv3
_chemical_formula_sum   'Po0.5 B12 Te3.5 H8 Pb8 Se0.5 O22.5 Lv3'
_cell_volume   622.22798416
_cell_formula_units_Z   1
loop_
 _symmetry_equiv_pos_site_id
 _symmetry_equiv_pos_as_xyz
  1  'x, y, z'
  2  '-x, -y, z'
  3  '-x+1/2, y+1/2, z+1/2'
  4  'x+1/2, -y+1/2, z+1/2'
loop_
 _atom_site_type_symbol
 _atom_site_label
 _atom_site_symmetry_multiplicity
 _atom_site_fract_x
 _atom_site_fract_y
 _atom_site_fract_z
 _atom_site_occupancy
  B  B0  4  0.01590000  0.11680000  0.72200000  1.0
  B  B1  4  0.15330000  0.72650000  0.70100000  1.0
  B  B2  4  0.24540000  0.17340000  0.69600000  1.0
  H  H3  4  0.10230000  0.58160000  0.83070000  1.0
  H  H4  4  0.16080000  0.55190000  0.05870000  1.0
  Te+  Te5  4  0.19630000  0.75310000  0.99280000  0.625
  Po+  Po6  4  0.19630000  0.75310000  0.99280000  0.125
  Se+  Se7  4  0.19630000  0.75310000  0.99280000  0.125
  O+  O8  4  0.19630000  0.75310000  0.99280000  0.125
  Pb  Pb9  4  0.07542000  0.28439000  0.21399000  1.0
  Pb  Pb10  4  0.15243000  0.94738000  0.22324000  1.0
  O  O11  4  0.01780000  0.11610000  0.02960000  1.0
  O  O12  4  0.08130000  0.82090000  0.58580000  1.0
  O  O13  4  0.08410000  0.62270000  0.69300000  1.0
  O  O14  4  0.12160000  0.16690000  0.59280000  1.0
  O  O15  4  0.24540000  0.22050000  0.99630000  1.0
  Lv+  Lv16  4  0.20510000  0.55890000  0.19800000  0.75
  Te+  Te17  4  0.20510000  0.55890000  0.19800000  0.25
  O  O18  2  0.00000000  0.00000000  0.58730000  1.0
