# generated using pymatgen
data_Cs0.33333333Rb0.33333333Sn0.33333333Ge0.33333333Bi2Sb1H27.33333333Pb0.3333
_symmetry_space_group_name_H-M  'C 1 m 1'
_cell_length_a   10.00090000
_cell_length_b   28.96400000
_cell_length_c   4.10360000
_cell_angle_alpha   90.00000000
_cell_angle_beta   100.99700000
_cell_angle_gamma   90.00000000
_symmetry_Int_Tables_number   8
_chemical_formula_structural
;
Cs0.33333333Rb0.33333333Sn0.33333333Ge0.33333333Bi2Sb1H27.33333333Pb0.
33333333C43I4Mc1N8F8
;
_chemical_formula_sum
;
Cs0.33333333 Rb0.33333333 Sn0.33333333 Ge0.33333333 Bi2 Sb1
H27.33333333 Pb0.33333333 C43 I4 Mc1 N8 F8
;
_cell_volume   1166.84626576
_cell_formula_units_Z   1
loop_
 _symmetry_equiv_pos_site_id
 _symmetry_equiv_pos_as_xyz
  1  'x, y, z'
  2  'x, -y, z'
  3  'x+1/2, y+1/2, z'
  4  'x+1/2, -y+1/2, z'
loop_
 _atom_site_type_symbol
 _atom_site_label
 _atom_site_symmetry_multiplicity
 _atom_site_fract_x
 _atom_site_fract_y
 _atom_site_fract_z
 _atom_site_occupancy
  H+  H0  4  0.21400000  0.24420000  0.21800000  0.8333333333333334
  Rb+  Rb1  4  0.21400000  0.24420000  0.21800000
  0.08333333333333333
  Cs+  Cs2  4  0.21400000  0.24420000  0.21800000
  0.08333333333333333
  H  H3  4  0.02630000  0.32170000  0.97560000  1.0
  H  H4  4  0.09530000  0.17480000  0.39960000  1.0
  H  H5  4  0.21590000  0.30340000  0.57530000  1.0
  H  H6  4  0.22850000  0.37630000  0.82710000  1.0
  H  H7  4  0.27960000  0.16990000  0.96460000  1.0
  H  H8  4  0.42320000  0.42060000  0.85530000  1.0
  C+  C9  4  0.33550000  0.19520000  0.05290000  0.75
  Ge+  Ge10  4  0.33550000  0.19520000  0.05290000
  0.08333333333333333
  Pb+  Pb11  4  0.33550000  0.19520000  0.05290000
  0.08333333333333333
  Sn+  Sn12  4  0.33550000  0.19520000  0.05290000
  0.08333333333333333
  C  C13  4  0.01320000  0.45269000  0.30820000  1.0
  C  C14  4  0.01940000  0.16473000  0.48920000  1.0
  C  C15  4  0.12130000  0.47626000  0.22380000  1.0
  C  C16  4  0.29540000  0.32179000  0.58940000  1.0
  C  C17  4  0.30280000  0.36485000  0.73750000  1.0
  C  C18  4  0.40370000  0.02437000  0.39530000  1.0
  C  C19  4  0.40720000  0.30554000  0.45990000  1.0
  C  C20  4  0.40870000  0.26080000  0.29450000  1.0
  C  C21  4  0.41960000  0.39099000  0.75380000  1.0
  C  C22  4  0.47100000  0.20008000  0.06100000  1.0
  I  I23  4  0.24317000  0.06474500  0.51296000  1.0
  Bi+  Bi24  4  0.02750000  0.12329000  0.63380000  0.5
  Mc+  Mc25  4  0.02750000  0.12329000  0.63380000  0.25
  Sb+  Sb26  4  0.02750000  0.12329000  0.63380000  0.25
  N  N27  4  0.01700000  0.25884000  0.21070000  1.0
  N  N28  4  0.29530000  0.23453000  0.19930000  1.0
  F  F29  4  0.01750000  0.40621000  0.30310000  1.0
  F  F30  4  0.22710000  0.45321000  0.13930000  1.0
