# generated using pymatgen
data_Fr1.5Cs1.5K1Ti2Zn6H28At0.5C12Br0.5N18Cl0.5O10F12.5
_symmetry_space_group_name_H-M  'C 1 m 1'
_cell_length_a   11.20250000
_cell_length_b   10.85410000
_cell_length_c   8.85650000
_cell_angle_alpha   90.00000000
_cell_angle_beta   115.75800000
_cell_angle_gamma   90.00000000
_symmetry_Int_Tables_number   8
_chemical_formula_structural
Fr1.5Cs1.5K1Ti2Zn6H28At0.5C12Br0.5N18Cl0.5O10F12.5
_chemical_formula_sum
'Fr1.5 Cs1.5 K1 Ti2 Zn6 H28 At0.5 C12 Br0.5 N18 Cl0.5 O10 F12.5'
_cell_volume   969.88659707
_cell_formula_units_Z   1
loop_
 _symmetry_equiv_pos_site_id
 _symmetry_equiv_pos_as_xyz
  1  'x, y, z'
  2  'x, -y, z'
  3  'x+1/2, y+1/2, z'
  4  'x+1/2, -y+1/2, z'
loop_
 _atom_site_type_symbol
 _atom_site_label
 _atom_site_symmetry_multiplicity
 _atom_site_fract_x
 _atom_site_fract_y
 _atom_site_fract_z
 _atom_site_occupancy
  Cs+  Cs0  4  0.27840000  0.15460000  0.45740000  0.375
  Fr+  Fr1  4  0.27840000  0.15460000  0.45740000  0.375
  K+  K2  4  0.27840000  0.15460000  0.45740000  0.25
  Ti  Ti3  2  0.00000000  0.00000000  0.00000000  1.0
  Zn  Zn4  4  0.06600000  0.33878000  0.17190000  1.0
  Zn  Zn5  2  0.05313000  0.50000000  0.50946000  1.0
  H  H6  4  0.01290000  0.32110000  0.78140000  1.0
  H  H7  4  0.08300000  0.10500000  0.65600000  1.0
  H  H8  4  0.21200000  0.09900000  0.78500000  1.0
  H  H9  4  0.22700000  0.31200000  0.54300000  1.0
  H  H10  4  0.28400000  0.39300000  0.67900000  1.0
  H  H11  4  0.30180000  0.32050000  0.08190000  1.0
  H  H12  2  0.38140000  0.50000000  0.43500000  1.0
  H  H13  2  0.47000000  0.50000000  0.36200000  1.0
  C  C14  4  0.01570000  0.40270000  0.81470000  1.0
  C  C15  4  0.30850000  0.18060000  0.37990000  1.0
  C  C16  4  0.32080000  0.27110000  0.17530000  1.0
  N  N17  4  0.02640000  0.43672000  0.96340000  1.0
  N  N18  4  0.24349000  0.26242000  0.25640000  1.0
  N  N19  4  0.41930000  0.14150000  0.37820000  1.0
  N  N20  4  0.42698000  0.20061000  0.24510000  1.0
  N  N21  2  0.00920000  0.50000000  0.71680000  1.0
  At+  At22  2  0.06590000  0.00000000  0.23000000  0.25
  F+  F23  2  0.06590000  0.00000000  0.23000000  0.25
  Br+  Br24  2  0.06590000  0.00000000  0.23000000  0.25
  Cl+  Cl25  2  0.06590000  0.00000000  0.23000000  0.25
  O  O26  4  0.14930000  0.15370000  0.72360000  1.0
  O  O27  4  0.20439000  0.36343000  0.60610000  1.0
  O  O28  2  0.46890000  0.50000000  0.46320000  1.0
  F  F29  4  0.49510000  0.32712000  0.99580000  1.0
  F  F30  2  0.11120000  0.50000000  0.30780000  1.0
  F  F31  2  0.16700000  0.00000000  0.00350000  1.0
  F  F32  2  0.32750000  0.50000000  0.97510000  1.0
  F  F33  2  0.42830000  0.50000000  0.76290000  1.0
