# generated using pymatgen
data_Co0.66666667Mt1.33333333Rb1.33333333Sn3H62.66666667Pb0.66666667C44.3333333
_symmetry_space_group_name_H-M  'C 1 m 1'
_cell_length_a   9.74720000
_cell_length_b   22.77700000
_cell_length_c   7.09030000
_cell_angle_alpha   90.00000000
_cell_angle_beta   131.45300000
_cell_angle_gamma   90.00000000
_symmetry_Int_Tables_number   8
_chemical_formula_structural
;
Co0.66666667Mt1.33333333Rb1.33333333Sn3H62.66666667Pb0.66666667C44.333
33333N4O16
;
_chemical_formula_sum
;
Co0.66666667 Mt1.33333333 Rb1.33333333 Sn3 H62.66666667 Pb0.66666667
C44.33333333 N4 O16
;
_cell_volume   1179.81001677
_cell_formula_units_Z   1
loop_
 _symmetry_equiv_pos_site_id
 _symmetry_equiv_pos_as_xyz
  1  'x, y, z'
  2  'x, -y, z'
  3  'x+1/2, y+1/2, z'
  4  'x+1/2, -y+1/2, z'
loop_
 _atom_site_type_symbol
 _atom_site_label
 _atom_site_symmetry_multiplicity
 _atom_site_fract_x
 _atom_site_fract_y
 _atom_site_fract_z
 _atom_site_occupancy
  Co+  Co0  2  0.01994000  0.50000000  0.29867000
  0.3333333333333333
  Mt+  Mt1  2  0.01994000  0.50000000  0.29867000
  0.6666666666666666
  Rb+  Rb2  4  0.45850000  0.30070000  0.92060000
  0.3333333333333333
  H+  H3  4  0.45850000  0.30070000  0.92060000  0.6666666666666666
  Sn+  Sn4  4  0.47790000  0.29434000  0.39340000  0.75
  Pb+  Pb5  4  0.47790000  0.29434000  0.39340000
  0.16666666666666666
  C+  C6  4  0.47790000  0.29434000  0.39340000  0.08333333333333333
  H  H7  4  0.00400000  0.44430000  0.67220000  1.0
  H  H8  4  0.03870000  0.29670000  0.02190000  1.0
  H  H9  4  0.05520000  0.27950000  0.60000000  1.0
  H  H10  4  0.09380000  0.05810000  0.65240000  1.0
  H  H11  4  0.09610000  0.05210000  0.87600000  1.0
  H  H12  4  0.16980000  0.37550000  0.33240000  1.0
  H  H13  4  0.17710000  0.36960000  0.55880000  1.0
  H  H14  4  0.20770000  0.10420000  0.19820000  1.0
  H  H15  4  0.23300000  0.46570000  0.20100000  1.0
  H  H16  4  0.24430000  0.13960000  0.92640000  1.0
  H  H17  4  0.29600000  0.46440000  0.78200000  1.0
  H  H18  4  0.29750000  0.05580000  0.54880000  1.0
  H  H19  4  0.37440000  0.13980000  0.42990000  1.0
  H  H20  4  0.37820000  0.10470000  0.91640000  1.0
  H  H21  4  0.46240000  0.31710000  0.48700000  1.0
  C  C22  4  0.02320000  0.27406000  0.11580000  1.0
  C  C23  4  0.03150000  0.26407000  0.45950000  1.0
  C  C24  4  0.05000000  0.29966000  0.31750000  1.0
  C  C25  4  0.09920000  0.36436000  0.37840000  1.0
  C  C26  4  0.17210000  0.05319000  0.83300000  1.0
  C  C27  4  0.30900000  0.10272000  0.97010000  1.0
  C  C28  4  0.33830000  0.10267000  0.34110000  1.0
  C  C29  4  0.37840000  0.05361000  0.51420000  1.0
  C  C30  4  0.38050000  0.38173000  0.11160000  1.0
  C  C31  4  0.44730000  0.31888000  0.18940000  1.0
  C  C32  4  0.47390000  0.28437000  0.05380000  1.0
  N  N33  4  0.43800000  0.09455000  0.24870000  1.0
  O  O34  4  0.32580000  0.40571000  0.20900000  1.0
  O  O35  4  0.38610000  0.40485000  0.95550000  1.0
  O  O36  2  0.16400000  0.50000000  0.18660000  1.0
  O  O37  2  0.23970000  0.50000000  0.67420000  1.0
  O  O38  2  0.27890000  0.00000000  0.91420000  1.0
  O  O39  2  0.34750000  0.00000000  0.38170000  1.0
