# generated using pymatgen
data_Rb20Al16Tl3.33333333B0.66666667At3.66666667I0.33333333Br4F72
_symmetry_space_group_name_H-M  'I -4 c 2'
_cell_length_a   11.66600000
_cell_length_b   11.66600000
_cell_length_c   12.55100000
_cell_angle_alpha   90.00000000
_cell_angle_beta   90.00000000
_cell_angle_gamma   90.00000000
_symmetry_Int_Tables_number   120
_chemical_formula_structural
Rb20Al16Tl3.33333333B0.66666667At3.66666667I0.33333333Br4F72
_chemical_formula_sum
'Rb20 Al16 Tl3.33333333 B0.66666667 At3.66666667 I0.33333333 Br4 F72'
_cell_volume   1708.13532336
_cell_formula_units_Z   1
loop_
 _symmetry_equiv_pos_site_id
 _symmetry_equiv_pos_as_xyz
  1  'x, y, z'
  2  'y, -x, -z'
  3  '-x, -y, z'
  4  '-y, x, -z'
  5  '-x, y, z+1/2'
  6  '-y, -x, -z+1/2'
  7  'x, -y, z+1/2'
  8  'y, x, -z+1/2'
  9  'x+1/2, y+1/2, z+1/2'
  10  'y+1/2, -x+1/2, -z+1/2'
  11  '-x+1/2, -y+1/2, z+1/2'
  12  '-y+1/2, x+1/2, -z+1/2'
  13  '-x+1/2, y+1/2, z'
  14  '-y+1/2, -x+1/2, -z'
  15  'x+1/2, -y+1/2, z'
  16  'y+1/2, x+1/2, -z'
loop_
 _atom_site_type_symbol
 _atom_site_label
 _atom_site_symmetry_multiplicity
 _atom_site_fract_x
 _atom_site_fract_y
 _atom_site_fract_z
 _atom_site_occupancy
  Rb  Rb0  16  0.15850000  0.34040000  0.68810000  1
  Rb  Rb1  4  0.00000000  0.00000000  0.25000000  1
  Al  Al2  16  0.07630000  0.20740000  0.99930000  1
  B+  B3  4  0.00000000  0.50000000  0.00000000  0.16666666666666666
  Tl+  Tl4  4  0.00000000  0.50000000  0.00000000
  0.8333333333333334
  Br+  Br5  8  0.21840000  0.28160000  0.00000000  0.5
  I+  I6  8  0.21840000  0.28160000  0.00000000
  0.041666666666666664
  At+  At7  8  0.21840000  0.28160000  0.00000000
  0.4583333333333333
  F  F8  16  0.00110000  0.34450000  0.49850000  1
  F  F9  16  0.06670000  0.14190000  0.49880000  1
  F  F10  16  0.07770000  0.20610000  0.13850000  1
  F  F11  16  0.08010000  0.21110000  0.86000000  1
  F  F12  8  0.00000000  0.50000000  0.13790000  1
