# generated using pymatgen
data_Cs20Co20I6.33333333Br1.33333333F72Ts0.33333333
_symmetry_space_group_name_H-M  'I -4 c 2'
_cell_length_a   12.43530000
_cell_length_b   12.43530000
_cell_length_c   12.86120000
_cell_angle_alpha   90.00000000
_cell_angle_beta   90.00000000
_cell_angle_gamma   90.00000000
_symmetry_Int_Tables_number   120
_chemical_formula_structural
Cs20Co20I6.33333333Br1.33333333F72Ts0.33333333
_chemical_formula_sum
'Cs20 Co20 I6.33333333 Br1.33333333 F72 Ts0.33333333'
_cell_volume   1988.81334714
_cell_formula_units_Z   1
loop_
 _symmetry_equiv_pos_site_id
 _symmetry_equiv_pos_as_xyz
  1  'x, y, z'
  2  'y, -x, -z'
  3  '-x, -y, z'
  4  '-y, x, -z'
  5  '-x, y, z+1/2'
  6  '-y, -x, -z+1/2'
  7  'x, -y, z+1/2'
  8  'y, x, -z+1/2'
  9  'x+1/2, y+1/2, z+1/2'
  10  'y+1/2, -x+1/2, -z+1/2'
  11  '-x+1/2, -y+1/2, z+1/2'
  12  '-y+1/2, x+1/2, -z+1/2'
  13  '-x+1/2, y+1/2, z'
  14  '-y+1/2, -x+1/2, -z'
  15  'x+1/2, -y+1/2, z'
  16  'y+1/2, x+1/2, -z'
loop_
 _atom_type_symbol
 _atom_type_oxidation_number
  Cs+  1.0
  Co3+  3.0
  I+  1.0
  Br+  1.0
  F-  -1.0
  Ts+  1.0
loop_
 _atom_site_type_symbol
 _atom_site_label
 _atom_site_symmetry_multiplicity
 _atom_site_fract_x
 _atom_site_fract_y
 _atom_site_fract_z
 _atom_site_occupancy
  Cs+  Cs0  16  0.15670000  0.33410000  0.67990000  1.0
  Cs+  Cs1  4  0.00000000  0.00000000  0.25000000  1.0
  Co3+  Co2  16  0.07490000  0.20680000  0.01390000  1.0
  Co3+  Co3  4  0.00000000  0.50000000  0.00000000  1.0
  F-  F4  16  0.00140000  0.34320000  0.51010000  1.0
  F-  F5  16  0.06550000  0.14120000  0.50880000  1.0
  F-  F6  16  0.07670000  0.20940000  0.14440000  1.0
  F-  F7  16  0.08030000  0.20880000  0.86320000  1.0
  F-  F8  8  0.22080000  0.27920000  0.00000000  1.0
  I+  I9  8  0.00000000  0.50000000  0.14330000  0.7916666666666666
  Br+  Br10  8  0.00000000  0.50000000  0.14330000
  0.16666666666666666
  Ts+  Ts11  8  0.00000000  0.50000000  0.14330000
  0.041666666666666664
