# generated using pymatgen
data_Cu2.5Ag0.25P4Au1Rg0.25Ne7.75He0.25F40
_symmetry_space_group_name_H-M  'I -4 c 2'
_cell_length_a   8.46700000
_cell_length_b   8.46700000
_cell_length_c   12.74500000
_cell_angle_alpha   90.00000000
_cell_angle_beta   90.00000000
_cell_angle_gamma   90.00000000
_symmetry_Int_Tables_number   120
_chemical_formula_structural   Cu2.5Ag0.25P4Au1Rg0.25Ne7.75He0.25F40
_chemical_formula_sum
'Cu2.5 Ag0.25 P4 Au1 Rg0.25 Ne7.75 He0.25 F40'
_cell_volume   913.69018431
_cell_formula_units_Z   1
loop_
 _symmetry_equiv_pos_site_id
 _symmetry_equiv_pos_as_xyz
  1  'x, y, z'
  2  'y, -x, -z'
  3  '-x, -y, z'
  4  '-y, x, -z'
  5  '-x+1/2, y+1/2, z'
  6  '-y+1/2, -x+1/2, -z'
  7  'x+1/2, -y+1/2, z'
  8  'y+1/2, x+1/2, -z'
  9  'x+1/2, y+1/2, z+1/2'
  10  'y+1/2, -x+1/2, -z+1/2'
  11  '-x+1/2, -y+1/2, z+1/2'
  12  '-y+1/2, x+1/2, -z+1/2'
  13  '-x, y, z+1/2'
  14  '-y, -x, -z+1/2'
  15  'x, -y, z+1/2'
  16  'y, x, -z+1/2'
loop_
 _atom_type_symbol
 _atom_type_oxidation_number
  Cu0+  0.0
  Ag0+  0.0
  P0+  0.0
  Au0+  0.0
  F0+  0.0
  He0+  0.0
  Ne0+  0.0
  Rg0+  0.0
loop_
 _atom_site_type_symbol
 _atom_site_label
 _atom_site_symmetry_multiplicity
 _atom_site_fract_x
 _atom_site_fract_y
 _atom_site_fract_z
 _atom_site_occupancy
  Au0+  Au0  4  0.00000000  0.00000000  0.25000000  0.25
  Cu0+  Cu1  4  0.00000000  0.00000000  0.25000000  0.625
  Ag0+  Ag2  4  0.00000000  0.00000000  0.25000000  0.0625
  Rg0+  Rg3  4  0.00000000  0.00000000  0.25000000  0.0625
  P0+  P4  4  0.00000000  0.50000000  0.25000000  1.0
  Ne0+  Ne5  8  0.24700000  0.25300000  0.00000000  0.96875
  He0+  He6  8  0.24700000  0.25300000  0.00000000  0.03125
  F0+  F7  16  0.07890000  0.32830000  0.74900000  1.0
  F0+  F8  16  0.11200000  0.12400000  0.09740000  1.0
  F0+  F9  8  0.00000000  0.50000000  0.12490000  1.0
