# generated using pymatgen
data_Ga3Bi0.5Te2.0P2S3.5N0.5O6.5
_symmetry_space_group_name_H-M  'P 31 2 1'
_cell_length_a   5.03300000
_cell_length_b   5.03300000
_cell_length_c   11.41100000
_cell_angle_alpha   90.00000000
_cell_angle_beta   90.00000000
_cell_angle_gamma   120.00000000
_symmetry_Int_Tables_number   152
_chemical_formula_structural   Ga3Bi0.5Te2.0P2S3.5N0.5O6.5
_chemical_formula_sum   'Ga3 Bi0.5 Te2.0 P2 S3.5 N0.5 O6.5'
_cell_volume   250.32729004
_cell_formula_units_Z   1
loop_
 _symmetry_equiv_pos_site_id
 _symmetry_equiv_pos_as_xyz
  1  'x, y, z'
  2  '-y, x-y, z+1/3'
  3  '-x+y, -x, z+2/3'
  4  'y, x, -z'
  5  'x-y, -y, -z+2/3'
  6  '-x, -x+y, -z+1/3'
loop_
 _atom_type_symbol
 _atom_type_oxidation_number
  Ga3+  3.0
  Bi5+  5.0
  Te2-  -2.0
  P5+  5.0
  S2-  -2.0
  N5+  5.0
  O2-  -2.0
loop_
 _atom_site_type_symbol
 _atom_site_label
 _atom_site_symmetry_multiplicity
 _atom_site_fract_x
 _atom_site_fract_y
 _atom_site_fract_z
 _atom_site_occupancy
  Ga3+  Ga0  3  0.00000000  0.45370000  0.66666667  1.0
  P5+  P1  3  0.00000000  0.45310000  0.16663333  0.6666666666666666
  Bi5+  Bi2  3  0.00000000  0.45310000  0.16663333
  0.16666666666666666
  N5+  N3  3  0.00000000  0.45310000  0.16663333
  0.16666666666666666
  S2-  S4  6  0.11100000  0.70900000  0.79346667  0.5833333333333334
  Te2-  Te5  6  0.11100000  0.70900000  0.79346667
  0.3333333333333333
  O2-  O6  6  0.11100000  0.70900000  0.79346667
  0.08333333333333333
  O2-  O7  6  0.08700000  0.68600000  0.28176667  1.0
