# generated using pymatgen
data_Fl2.5Ge0.25Pb0.25S4.5O1.5
_symmetry_space_group_name_H-M  'P 31 2 1'
_cell_length_a   4.70500000
_cell_length_b   4.70500000
_cell_length_c   5.25000000
_cell_angle_alpha   90.00000000
_cell_angle_beta   90.00000000
_cell_angle_gamma   120.00000000
_symmetry_Int_Tables_number   152
_chemical_formula_structural   Fl2.5Ge0.25Pb0.25S4.5O1.5
_chemical_formula_sum   'Fl2.5 Ge0.25 Pb0.25 S4.5 O1.5'
_cell_volume   100.64893657
_cell_formula_units_Z   1
loop_
 _symmetry_equiv_pos_site_id
 _symmetry_equiv_pos_as_xyz
  1  'x, y, z'
  2  '-y, x-y, z+1/3'
  3  '-x+y, -x, z+2/3'
  4  'y, x, -z'
  5  'x-y, -y, -z+2/3'
  6  '-x, -x+y, -z+1/3'
loop_
 _atom_type_symbol
 _atom_type_oxidation_number
  Ge+  1.0
  Pb+  1.0
  S+  1.0
  O+  1.0
  Fl+  1.0
loop_
 _atom_site_type_symbol
 _atom_site_label
 _atom_site_symmetry_multiplicity
 _atom_site_fract_x
 _atom_site_fract_y
 _atom_site_fract_z
 _atom_site_occupancy
  Fl+  Fl0  3  0.00000000  0.45320000  0.66666667
  0.8333333333333334
  Pb+  Pb1  3  0.00000000  0.45320000  0.66666667
  0.08333333333333333
  Ge+  Ge2  3  0.00000000  0.45320000  0.66666667
  0.08333333333333333
  O+  O3  6  0.10490000  0.71190000  0.43266667  0.25
  S+  S4  6  0.10490000  0.71190000  0.43266667  0.75
