# generated using pymatgen
data_Na2Li1.83333333Sb2H2.16666667S8
_symmetry_space_group_name_H-M  'P -4 21 c'
_cell_length_a   7.16530000
_cell_length_b   7.16530000
_cell_length_c   7.28960000
_cell_angle_alpha   90.00000000
_cell_angle_beta   90.00000000
_cell_angle_gamma   90.00000000
_symmetry_Int_Tables_number   114
_chemical_formula_structural   Na2Li1.83333333Sb2H2.16666667S8
_chemical_formula_sum   'Na2 Li1.83333333 Sb2 H2.16666667 S8'
_cell_volume   374.25917401
_cell_formula_units_Z   1
loop_
 _symmetry_equiv_pos_site_id
 _symmetry_equiv_pos_as_xyz
  1  'x, y, z'
  2  'y, -x, -z'
  3  '-x, -y, z'
  4  '-y, x, -z'
  5  'x+1/2, -y+1/2, -z+1/2'
  6  'y+1/2, x+1/2, z+1/2'
  7  '-x+1/2, y+1/2, -z+1/2'
  8  '-y+1/2, -x+1/2, z+1/2'
loop_
 _atom_site_type_symbol
 _atom_site_label
 _atom_site_symmetry_multiplicity
 _atom_site_fract_x
 _atom_site_fract_y
 _atom_site_fract_z
 _atom_site_occupancy
  Na  Na0  2  0.00000000  0.00000000  0.50000000  1.0
  H+  H1  4  0.00000000  0.50000000  0.06010000  0.5416666666666666
  Li+  Li2  4  0.00000000  0.50000000  0.06010000
  0.4583333333333333
  Sb  Sb3  2  0.00000000  0.00000000  0.00000000  1.0
  S  S4  8  0.17240000  0.79440000  0.81710000  1.0
