# generated using pymatgen
data_K2Li3.33333333Ta2H26.66666667C56S8F12
_symmetry_space_group_name_H-M  'P -4 21 c'
_cell_length_a   13.76300000
_cell_length_b   13.76300000
_cell_length_c   6.74600000
_cell_angle_alpha   90.00000000
_cell_angle_beta   90.00000000
_cell_angle_gamma   90.00000000
_symmetry_Int_Tables_number   114
_chemical_formula_structural   K2Li3.33333333Ta2H26.66666667C56S8F12
_chemical_formula_sum   'K2 Li3.33333333 Ta2 H26.66666667 C56 S8 F12'
_cell_volume   1277.82846007
_cell_formula_units_Z   1
loop_
 _symmetry_equiv_pos_site_id
 _symmetry_equiv_pos_as_xyz
  1  'x, y, z'
  2  'y, -x, -z'
  3  '-x, -y, z'
  4  '-y, x, -z'
  5  'x+1/2, -y+1/2, -z+1/2'
  6  'y+1/2, x+1/2, z+1/2'
  7  '-x+1/2, y+1/2, -z+1/2'
  8  '-y+1/2, -x+1/2, z+1/2'
loop_
 _atom_site_type_symbol
 _atom_site_label
 _atom_site_symmetry_multiplicity
 _atom_site_fract_x
 _atom_site_fract_y
 _atom_site_fract_z
 _atom_site_occupancy
  K+  K0  8  0.20670000  0.25390000  0.40450000  0.25
  H+  H1  8  0.20670000  0.25390000  0.40450000  0.3333333333333333
  Li+  Li2  8  0.20670000  0.25390000  0.40450000
  0.4166666666666667
  Ta  Ta3  2  0.00000000  0.00000000  0.00000000  1.0
  H  H4  8  0.03430000  0.25070000  0.59450000  1.0
  H  H5  8  0.09700000  0.85320000  0.59240000  1.0
  H  H6  8  0.12650000  0.78370000  0.09860000  1.0
  C  C7  8  0.02110000  0.45410000  0.59930000  1.0
  C  C8  8  0.02880000  0.72510000  0.59500000  1.0
  C  C9  8  0.04640000  0.62430000  0.59740000  1.0
  C  C10  8  0.08710000  0.64300000  0.09220000  1.0
  C  C11  8  0.10710000  0.78640000  0.59400000  1.0
  C  C12  8  0.14990000  0.72030000  0.09580000  1.0
  C  C13  8  0.20190000  0.75010000  0.59500000  1.0
  S  S14  8  0.03930000  0.35310000  0.09490000  1.0
  F  F15  8  0.03900000  0.12960000  0.00300000  1.0
  F  F16  4  0.00000000  0.00000000  0.27500000  1.0
