# generated using pymatgen
data_Rb2U3MnTe5LvO5
_symmetry_space_group_name_H-M  'R -3 c :H'
_cell_length_a   6.84070000
_cell_length_b   6.84070000
_cell_length_c   37.55200000
_cell_angle_alpha   90.00000000
_cell_angle_beta   90.00000000
_cell_angle_gamma   120.00000000
_symmetry_Int_Tables_number   167
_chemical_formula_structural   Rb2U3MnTe5LvO5
_chemical_formula_sum   'Rb12 U18 Mn6 Te30.0 Lv6 O30'
_cell_volume   1521.82527776
_cell_formula_units_Z   6
loop_
 _symmetry_equiv_pos_site_id
 _symmetry_equiv_pos_as_xyz
  1  'x, y, z'
  2  '-x, -y, -z'
  3  '-y, x-y, z'
  4  'y, -x+y, -z'
  5  '-x+y, -x, z'
  6  'x-y, x, -z'
  7  'y+1/3, x+2/3, -z+1/6'
  8  '-y+1/3, -x+2/3, z+1/6'
  9  'x-y+1/3, -y+2/3, -z+1/6'
  10  '-x+y+1/3, y+2/3, z+1/6'
  11  '-x+1/3, -x+y+2/3, -z+1/6'
  12  'x+1/3, x-y+2/3, z+1/6'
  13  'x+2/3, y+1/3, z+1/3'
  14  '-x+2/3, -y+1/3, -z+1/3'
  15  '-y+2/3, x-y+1/3, z+1/3'
  16  'y+2/3, -x+y+1/3, -z+1/3'
  17  '-x+y+2/3, -x+1/3, z+1/3'
  18  'x-y+2/3, x+1/3, -z+1/3'
  19  'y, x, -z+1/2'
  20  '-y, -x, z+1/2'
  21  'x-y, -y, -z+1/2'
  22  '-x+y, y, z+1/2'
  23  '-x, -x+y, -z+1/2'
  24  'x, x-y, z+1/2'
  25  'x+1/3, y+2/3, z+2/3'
  26  '-x+1/3, -y+2/3, -z+2/3'
  27  '-y+1/3, x-y+2/3, z+2/3'
  28  'y+1/3, -x+y+2/3, -z+2/3'
  29  '-x+y+1/3, -x+2/3, z+2/3'
  30  'x-y+1/3, x+2/3, -z+2/3'
  31  'y+2/3, x+1/3, -z+5/6'
  32  '-y+2/3, -x+1/3, z+5/6'
  33  'x-y+2/3, -y+1/3, -z+5/6'
  34  '-x+y+2/3, y+1/3, z+5/6'
  35  '-x+2/3, -x+y+1/3, -z+5/6'
  36  'x+2/3, x-y+1/3, z+5/6'
loop_
 _atom_site_type_symbol
 _atom_site_label
 _atom_site_symmetry_multiplicity
 _atom_site_fract_x
 _atom_site_fract_y
 _atom_site_fract_z
 _atom_site_occupancy
  Rb  Rb0  12  0.00000000  0.00000000  0.17318300  1.0
  U  U1  18  0.00000000  0.36813000  0.25000000  1.0
  Mn  Mn2  6  0.00000000  0.00000000  0.00000000  1.0
  Te+  Te3  36  0.02430000  0.27440000  0.53374000
  0.8333333333333334
  Lv+  Lv4  36  0.02430000  0.27440000  0.53374000
  0.16666666666666666
  O  O5  18  0.00000000  0.25380000  0.75000000  1.0
  O  O6  12  0.00000000  0.00000000  0.09522000  1.0
