# generated using pymatgen
data_Te2P3.5H24Pb8C8S1N36.5Lv1O20
_symmetry_space_group_name_H-M  'P c c n'
_cell_length_a   11.47410000
_cell_length_b   17.02600000
_cell_length_c   5.94430000
_cell_angle_alpha   90.00000000
_cell_angle_beta   90.00000000
_cell_angle_gamma   90.00000000
_symmetry_Int_Tables_number   56
_chemical_formula_structural   Te2P3.5H24Pb8C8S1N36.5Lv1O20
_chemical_formula_sum   'Te2 P3.5 H24 Pb8 C8 S1 N36.5 Lv1 O20'
_cell_volume   1161.26671752
_cell_formula_units_Z   1
loop_
 _symmetry_equiv_pos_site_id
 _symmetry_equiv_pos_as_xyz
  1  'x, y, z'
  2  '-x, -y, -z'
  3  '-x+1/2, -y+1/2, z'
  4  'x+1/2, y+1/2, -z'
  5  'x+1/2, -y, -z+1/2'
  6  '-x+1/2, y, z+1/2'
  7  '-x, y+1/2, -z+1/2'
  8  'x, -y+1/2, z+1/2'
loop_
 _atom_site_type_symbol
 _atom_site_label
 _atom_site_symmetry_multiplicity
 _atom_site_fract_x
 _atom_site_fract_y
 _atom_site_fract_z
 _atom_site_occupancy
  H  H0  8  0.02130000  0.67090000  0.79050000  1.0
  H  H1  8  0.07340000  0.22940000  0.68930000  1.0
  H  H2  8  0.22780000  0.21420000  0.02550000  1.0
  Pb  Pb3  8  0.14522000  0.67246000  0.15753000  1.0
  C  C4  8  0.07920000  0.48500000  0.75400000  1.0
  P+  P5  8  0.18130000  0.01870000  0.94600000  0.4375
  N+  N6  8  0.18130000  0.01870000  0.94600000  0.5625
  N  N7  8  0.02420000  0.52430000  0.93200000  1.0
  N  N8  8  0.08640000  0.08860000  0.19800000  1.0
  N  N9  8  0.13690000  0.52900000  0.60300000  1.0
  N  N10  8  0.15060000  0.08990000  0.00700000  1.0
  S+  S11  4  0.25000000  0.75000000  0.40900000  0.25
  Lv+  Lv12  4  0.25000000  0.75000000  0.40900000  0.25
  Te+  Te13  4  0.25000000  0.75000000  0.40900000  0.5
  O  O14  8  0.00290000  0.21800000  0.71900000  1.0
  O  O15  8  0.15350000  0.60630000  0.59930000  1.0
  O  O16  4  0.25000000  0.25000000  0.11600000  1.0
