# generated using pymatgen
data_Ra1.66666667Sr1.5Be0.83333333Sn8S20
_symmetry_space_group_name_H-M  'P c c n'
_cell_length_a   6.67400000
_cell_length_b   10.60700000
_cell_length_c   11.39400000
_cell_angle_alpha   90.00000000
_cell_angle_beta   90.00000000
_cell_angle_gamma   90.00000000
_symmetry_Int_Tables_number   56
_chemical_formula_structural   Ra1.66666667Sr1.5Be0.83333333Sn8S20
_chemical_formula_sum   'Ra1.66666667 Sr1.5 Be0.83333333 Sn8 S20'
_cell_volume   806.59399849
_cell_formula_units_Z   1
loop_
 _symmetry_equiv_pos_site_id
 _symmetry_equiv_pos_as_xyz
  1  'x, y, z'
  2  '-x, -y, -z'
  3  '-x+1/2, -y+1/2, z'
  4  'x+1/2, y+1/2, -z'
  5  'x+1/2, -y, -z+1/2'
  6  '-x+1/2, y, z+1/2'
  7  '-x, y+1/2, -z+1/2'
  8  'x, -y+1/2, z+1/2'
loop_
 _atom_site_type_symbol
 _atom_site_label
 _atom_site_symmetry_multiplicity
 _atom_site_fract_x
 _atom_site_fract_y
 _atom_site_fract_z
 _atom_site_occupancy
  Ra+  Ra0  4  0.25000000  0.25000000  0.30200000
  0.4166666666666667
  Sr+  Sr1  4  0.25000000  0.25000000  0.30200000  0.375
  Be+  Be2  4  0.25000000  0.25000000  0.30200000
  0.20833333333333334
  Sn  Sn3  8  0.24653000  0.55958000  0.52717000  1.0
  S  S4  8  0.05010000  0.52920000  0.35077000  1.0
  S  S5  8  0.07020000  0.13490000  0.56508000  1.0
  S  S6  4  0.25000000  0.75000000  0.15450000  1.0
