# generated using pymatgen
data_Tl15.33333333Nh0.66666667Po7Te8Se1S1.33333333O14.66666667
_symmetry_space_group_name_H-M  'P b a n :2'
_cell_length_a   16.60000000
_cell_length_b   11.07800000
_cell_length_c   5.23800000
_cell_angle_alpha   90.00000000
_cell_angle_beta   90.00000000
_cell_angle_gamma   90.00000000
_symmetry_Int_Tables_number   50
_chemical_formula_structural
Tl15.33333333Nh0.66666667Po7Te8Se1S1.33333333O14.66666667
_chemical_formula_sum
'Tl15.33333333 Nh0.66666667 Po7 Te8 Se1 S1.33333333 O14.66666667'
_cell_volume   963.24096240
_cell_formula_units_Z   1
loop_
 _symmetry_equiv_pos_site_id
 _symmetry_equiv_pos_as_xyz
  1  'x, y, z'
  2  '-x+1/2, -y+1/2, z'
  3  '-x+1/2, y, -z'
  4  'x, -y+1/2, -z'
  5  '-x, -y, -z'
  6  'x+1/2, y+1/2, -z'
  7  'x+1/2, -y, z'
  8  '-x, y+1/2, z'
loop_
 _atom_type_symbol
 _atom_type_oxidation_number
  Tl+  1.0
  Po2-  -2.0
  Te4+  4.0
  Se2-  -2.0
  S2-  -2.0
  O2-  -2.0
  Nh+  1.0
loop_
 _atom_site_type_symbol
 _atom_site_label
 _atom_site_symmetry_multiplicity
 _atom_site_fract_x
 _atom_site_fract_y
 _atom_site_fract_z
 _atom_site_occupancy
  Tl+  Tl0  8  0.00470000  0.13560000  0.75940000  1.0
  Tl+  Tl1  8  0.16780000  0.12020000  0.24820000
  0.9166666666666666
  Nh+  Nh2  8  0.16780000  0.12020000  0.24820000
  0.08333333333333333
  Se2-  Se3  8  0.05370000  0.60600000  0.33340000  0.125
  Po2-  Po4  8  0.05370000  0.60600000  0.33340000  0.875
  Te4+  Te5  8  0.16360000  0.61320000  0.23630000  1.0
  O2-  O6  8  0.15520000  0.61050000  0.88760000  0.8333333333333334
  S2-  S7  8  0.15520000  0.61050000  0.88760000
  0.16666666666666666
  O2-  O8  8  0.19050000  0.04590000  0.71840000  1.0
