# generated using pymatgen
data_Zn1.66666667Cd1Cu14Hg7.33333333Cn2
_symmetry_space_group_name_H-M  'R 3 m :R'
_cell_length_a   9.40240000
_cell_length_b   9.40240000
_cell_length_c   9.40240000
_cell_angle_alpha   90.42500000
_cell_angle_beta   90.42500000
_cell_angle_gamma   90.42500000
_symmetry_Int_Tables_number   160
_chemical_formula_structural   Zn1.66666667Cd1Cu14Hg7.33333333Cn2
_chemical_formula_sum   'Zn1.66666667 Cd1 Cu14 Hg7.33333333 Cn2'
_cell_volume   831.15141110
_cell_formula_units_Z   1
loop_
 _symmetry_equiv_pos_site_id
 _symmetry_equiv_pos_as_xyz
  1  'x, y, z'
  2  'z, x, y'
  3  'y, z, x'
  4  'z, y, x'
  5  'y, x, z'
  6  'x, z, y'
loop_
 _atom_site_type_symbol
 _atom_site_label
 _atom_site_symmetry_multiplicity
 _atom_site_fract_x
 _atom_site_fract_y
 _atom_site_fract_z
 _atom_site_occupancy
  Cu  Cu0  3  0.00500000  0.00500000  0.34500000  1
  Cu  Cu1  3  0.06800000  0.29500000  0.29500000  1
  Cu  Cu2  3  0.09700000  0.90300000  0.90300000  1
  Cu  Cu3  3  0.16300000  0.16300000  0.83700000  1
  Cu  Cu4  1  0.09700000  0.09700000  0.09700000  1
  Cu  Cu5  1  0.83700000  0.83700000  0.83700000  1
  Cd+  Cd6  3  0.64800000  0.99700000  0.99700000
  0.2222222222222222
  Hg+  Hg7  3  0.64800000  0.99700000  0.99700000
  0.2222222222222222
  Zn+  Zn8  3  0.64800000  0.99700000  0.99700000
  0.3333333333333333
  Cn+  Cn9  3  0.64800000  0.99700000  0.99700000
  0.2222222222222222
  Cn+  Cn10  3  0.04000000  0.69300000  0.69300000
  0.4444444444444444
  Zn+  Zn11  3  0.04000000  0.69300000  0.69300000
  0.2222222222222222
  Cd+  Cd12  3  0.04000000  0.69300000  0.69300000
  0.1111111111111111
  Hg+  Hg13  3  0.04000000  0.69300000  0.69300000
  0.2222222222222222
  Hg  Hg14  6  0.33700000  0.71600000  0.94000000  1
