# generated using pymatgen
data_Cr3Cu2.66666667Rg0.33333333Po1Te1.33333333S3Lv0.33333333O0.33333333
_symmetry_space_group_name_H-M  'R 3 m :H'
_cell_length_a   3.48200000
_cell_length_b   3.48200000
_cell_length_c   18.68600000
_cell_angle_alpha   90.00000000
_cell_angle_beta   90.00000000
_cell_angle_gamma   120.00000000
_symmetry_Int_Tables_number   160
_chemical_formula_structural
Cr3Cu2.66666667Rg0.33333333Po1Te1.33333333S3Lv0.33333333O0.33333333
_chemical_formula_sum
;
Cr3 Cu2.66666667 Rg0.33333333 Po1 Te1.33333333 S3 Lv0.33333333
O0.33333333
;
_cell_volume   196.20248777
_cell_formula_units_Z   1
loop_
 _symmetry_equiv_pos_site_id
 _symmetry_equiv_pos_as_xyz
  1  'x, y, z'
  2  '-y, x-y, z'
  3  '-x+y, -x, z'
  4  '-y, -x, z'
  5  '-x+y, y, z'
  6  'x, x-y, z'
  7  'x+2/3, y+1/3, z+1/3'
  8  '-y+2/3, x-y+1/3, z+1/3'
  9  '-x+y+2/3, -x+1/3, z+1/3'
  10  '-y+2/3, -x+1/3, z+1/3'
  11  '-x+y+2/3, y+1/3, z+1/3'
  12  'x+2/3, x-y+1/3, z+1/3'
  13  'x+1/3, y+2/3, z+2/3'
  14  '-y+1/3, x-y+2/3, z+2/3'
  15  '-x+y+1/3, -x+2/3, z+2/3'
  16  '-y+1/3, -x+2/3, z+2/3'
  17  '-x+y+1/3, y+2/3, z+2/3'
  18  'x+1/3, x-y+2/3, z+2/3'
loop_
 _atom_type_symbol
 _atom_type_oxidation_number
  Cr0+  0.0
  Cu0+  0.0
  Po0+  0.0
  Te0+  0.0
  S0+  0.0
  O0+  0.0
  Lv0+  0.0
  Rg0+  0.0
loop_
 _atom_site_type_symbol
 _atom_site_label
 _atom_site_symmetry_multiplicity
 _atom_site_fract_x
 _atom_site_fract_y
 _atom_site_fract_z
 _atom_site_occupancy
  Cr0+  Cr0  3  0.00000000  0.00000000  0.00000000  1.0
  Cu0+  Cu1  3  0.00000000  0.00000000  0.85170000
  0.8888888888888888
  Rg0+  Rg2  3  0.00000000  0.00000000  0.85170000
  0.1111111111111111
  S0+  S3  3  0.00000000  0.00000000  0.73500000  1.0
  Te0+  Te4  3  0.00000000  0.00000000  0.25790000
  0.4444444444444444
  Lv0+  Lv5  3  0.00000000  0.00000000  0.25790000
  0.1111111111111111
  Po0+  Po6  3  0.00000000  0.00000000  0.25790000
  0.3333333333333333
  O0+  O7  3  0.00000000  0.00000000  0.25790000  0.1111111111111111
