# generated using pymatgen
data_In80Lv35Te9SeS99
_symmetry_space_group_name_H-M  'I 41/a c d :2'
_cell_length_a   20.31800000
_cell_length_b   20.31800000
_cell_length_c   31.99400000
_cell_angle_alpha   90.00000000
_cell_angle_beta   90.00000000
_cell_angle_gamma   90.00000000
_symmetry_Int_Tables_number   142
_chemical_formula_structural   In80Lv35Te9SeS99
_chemical_formula_sum   'In80 Lv35 Te9 Se1 S99'
_cell_volume   13207.79904126
_cell_formula_units_Z   1
loop_
 _symmetry_equiv_pos_site_id
 _symmetry_equiv_pos_as_xyz
  1  'x, y, z'
  2  '-y+1/4, x+3/4, z+1/4'
  3  '-x, -y+1/2, z'
  4  'y+3/4, -x+3/4, z+1/4'
  5  'x+1/2, -y+1/2, -z'
  6  '-y+1/4, -x+1/4, -z+1/4'
  7  '-x+1/2, y, -z'
  8  'y+3/4, x+1/4, -z+1/4'
  9  '-x, -y, -z'
  10  'y+1/4, -x+3/4, -z+1/4'
  11  'x, y+1/2, -z'
  12  '-y+3/4, x+3/4, -z+1/4'
  13  '-x+1/2, y+1/2, z'
  14  'y+1/4, x+1/4, z+1/4'
  15  'x+1/2, -y, z'
  16  '-y+3/4, -x+1/4, z+1/4'
  17  'x+1/2, y+1/2, z+1/2'
  18  '-y+3/4, x+1/4, z+3/4'
  19  '-x+1/2, -y, z+1/2'
  20  'y+1/4, -x+1/4, z+3/4'
  21  'x, -y, -z+1/2'
  22  '-y+3/4, -x+3/4, -z+3/4'
  23  '-x, y+1/2, -z+1/2'
  24  'y+1/4, x+3/4, -z+3/4'
  25  '-x+1/2, -y+1/2, -z+1/2'
  26  'y+3/4, -x+1/4, -z+3/4'
  27  'x+1/2, y, -z+1/2'
  28  '-y+1/4, x+1/4, -z+3/4'
  29  '-x, y, z+1/2'
  30  'y+3/4, x+3/4, z+3/4'
  31  'x, -y+1/2, z+1/2'
  32  '-y+1/4, -x+3/4, z+3/4'
loop_
 _atom_site_type_symbol
 _atom_site_label
 _atom_site_symmetry_multiplicity
 _atom_site_fract_x
 _atom_site_fract_y
 _atom_site_fract_z
 _atom_site_occupancy
  In  In0  32  0.03756000  0.11315000  0.87526000  1.0
  In  In1  32  0.09166000  0.08133000  0.28871000  1.0
  In  In2  16  0.00000000  0.25000000  0.28411000  1.0
  Lv+  Lv3  32  0.04995000  0.16251000  0.42046000  0.96875
  Se+  Se4  32  0.04995000  0.16251000  0.42046000  0.03125
  S  S5  32  0.00988000  0.02682000  0.33313000  1.0
  S  S6  32  0.04310000  0.16278000  0.24109000  1.0
  S  S7  32  0.12161000  0.06751000  0.91923000  1.0
  Te+  Te8  16  0.15520000  0.00000000  0.25000000  0.5625
  S+  S9  16  0.15520000  0.00000000  0.25000000  0.1875
  Lv+  Lv10  16  0.15520000  0.00000000  0.25000000  0.25
