# generated using pymatgen
data_Fr1.5Cs0.5Na0.5Po0.5Ge0.5Te1.5H42.5Pb1C45Fl1.5Se0.5N3O6Lv0.5
_symmetry_space_group_name_H-M  'P 32'
_cell_length_a   13.90650000
_cell_length_b   13.90650000
_cell_length_c   6.05480000
_cell_angle_alpha   90.00000000
_cell_angle_beta   90.00000000
_cell_angle_gamma   120.00000000
_symmetry_Int_Tables_number   145
_chemical_formula_structural
Fr1.5Cs0.5Na0.5Po0.5Ge0.5Te1.5H42.5Pb1C45Fl1.5Se0.5N3O6Lv0.5
_chemical_formula_sum
;
Fr1.5 Cs0.5 Na0.5 Po0.5 Ge0.5 Te1.5 H42.5 Pb1 C45 Fl1.5 Se0.5 N3 O6
Lv0.5
;
_cell_volume   1014.06574887
_cell_formula_units_Z   1
loop_
 _symmetry_equiv_pos_site_id
 _symmetry_equiv_pos_as_xyz
  1  'x, y, z'
  2  '-y, x-y, z+2/3'
  3  '-x+y, -x, z+1/3'
loop_
 _atom_site_type_symbol
 _atom_site_label
 _atom_site_symmetry_multiplicity
 _atom_site_fract_x
 _atom_site_fract_y
 _atom_site_fract_z
 _atom_site_occupancy
  Cs+  Cs0  3  0.56510000  0.35190000  0.19170000
  0.16666666666666666
  Fr+  Fr1  3  0.56510000  0.35190000  0.19170000  0.5
  H+  H2  3  0.56510000  0.35190000  0.19170000  0.16666666666666666
  Na+  Na3  3  0.56510000  0.35190000  0.19170000
  0.16666666666666666
  H  H4  3  0.00520000  0.35590000  0.02143333  1.0
  H  H5  3  0.01300000  0.80010000  0.51500000  1.0
  H  H6  3  0.02160000  0.83440000  0.26040000  1.0
  H  H7  3  0.03330000  0.92030000  0.44900000  1.0
  H  H8  3  0.04640000  0.60100000  0.94753333  1.0
  H  H9  3  0.11780000  0.32120000  0.42433333  1.0
  H  H10  3  0.13780000  0.00700000  0.76866667  1.0
  H  H11  3  0.18080000  0.73760000  0.37293333  1.0
  H  H12  3  0.22630000  0.69500000  0.75893333  1.0
  H  H13  3  0.26790000  0.67450000  0.52613333  1.0
  H  H14  3  0.28260000  0.11790000  0.36386667  1.0
  H  H15  3  0.37480000  0.30450000  0.85790000  1.0
  H  H16  3  0.44680000  0.18940000  0.77120000  1.0
  H  H17  3  0.54360000  0.21420000  0.44040000  1.0
  C  C18  3  0.00010000  0.49830000  0.55543333  1.0
  C  C19  3  0.00240000  0.31000000  0.90253333  1.0
  C  C20  3  0.06930000  0.28920000  0.54653333  1.0
  C  C21  3  0.07090000  0.35470000  0.72083333  1.0
  C  C22  3  0.11930000  0.54150000  0.62643333  1.0
  C  C23  3  0.15820000  0.15400000  0.07346667  1.0
  C  C24  3  0.18100000  0.00460000  0.88786667  1.0
  C  C25  3  0.20180000  0.66350000  0.60923333  1.0
  C  C26  3  0.20370000  0.07580000  0.06726667  1.0
  C  C27  3  0.26690000  0.07040000  0.23996667  1.0
  C  C28  3  0.41380000  0.31470000  0.72320000  1.0
  C  C29  3  0.45660000  0.24630000  0.67160000  1.0
  C  C30  3  0.48440000  0.41250000  0.37870000  1.0
  C  C31  3  0.51380000  0.26070000  0.47420000  1.0
  C  C32  3  0.52710000  0.34280000  0.32720000  1.0
  Fl+  Fl33  3  0.42780000  0.39810000  0.57810000  0.5
  Ge+  Ge34  3  0.42780000  0.39810000  0.57810000
  0.16666666666666666
  Pb+  Pb35  3  0.42780000  0.39810000  0.57810000
  0.3333333333333333
  N  N36  3  0.14804000  0.47386000  0.70943333  1.0
  O  O37  3  0.15389000  0.71932000  0.50053333  1.0
  O  O38  3  0.48344000  0.03115000  0.71096667  1.0
  Te+  Te39  3  0.24999000  0.50798000  0.77873333  0.5
  Lv+  Lv40  3  0.24999000  0.50798000  0.77873333
  0.16666666666666666
  Se+  Se41  3  0.24999000  0.50798000  0.77873333
  0.16666666666666666
  Po+  Po42  3  0.24999000  0.50798000  0.77873333
  0.16666666666666666
