# generated using pymatgen
data_Cs1.5K0.5H55C41Fl0.5Pb0.5N3O6
_symmetry_space_group_name_H-M  'P 32'
_cell_length_a   7.72960000
_cell_length_b   7.72960000
_cell_length_c   18.34720000
_cell_angle_alpha   90.00000000
_cell_angle_beta   90.00000000
_cell_angle_gamma   120.00000000
_symmetry_Int_Tables_number   145
_chemical_formula_structural   Cs1.5K0.5H55C41Fl0.5Pb0.5N3O6
_chemical_formula_sum   'Cs1.5 K0.5 H55 C41 Fl0.5 Pb0.5 N3 O6'
_cell_volume   949.32401458
_cell_formula_units_Z   1
loop_
 _symmetry_equiv_pos_site_id
 _symmetry_equiv_pos_as_xyz
  1  'x, y, z'
  2  '-y, x-y, z+2/3'
  3  '-x+y, -x, z+1/3'
loop_
 _atom_site_type_symbol
 _atom_site_label
 _atom_site_symmetry_multiplicity
 _atom_site_fract_x
 _atom_site_fract_y
 _atom_site_fract_z
 _atom_site_occupancy
  K+  K0  3  0.49171200  0.17502800  0.12836767  0.16666666666666666
  H+  H1  3  0.49171200  0.17502800  0.12836767  0.3333333333333333
  Cs+  Cs2  3  0.49171200  0.17502800  0.12836767  0.5
  H  H3  3  0.00159300  0.91511500  0.68265500  1.0
  H  H4  3  0.03153300  0.84406500  0.26534767  1.0
  H  H5  3  0.05382500  0.65383600  0.44631600  1.0
  H  H6  3  0.12645200  0.55592300  0.98725667  1.0
  H  H7  3  0.13785800  0.55258600  0.67959333  1.0
  H  H8  3  0.15739700  0.82015900  0.50604900  1.0
  H  H9  3  0.18649000  0.43698200  0.73911133  1.0
  H  H10  3  0.19348200  0.54757500  0.53801900  1.0
  H  H11  3  0.21090400  0.03994100  0.83162933  1.0
  H  H12  3  0.21503800  0.69013400  0.33311900  1.0
  H  H13  3  0.26945100  0.67547700  0.18763567  1.0
  H  H14  3  0.34475400  0.06090000  0.66702000  1.0
  H  H15  3  0.36846300  0.30686500  0.42322800  1.0
  H  H16  3  0.40330800  0.02058400  0.19309467  1.0
  H  H17  3  0.51258100  0.21636300  0.30772467  1.0
  H  H18  3  0.53378800  0.39261800  0.25903667  1.0
  H  H19  3  0.53669300  0.12276700  0.47958700  1.0
  H  H20  3  0.57706500  0.28843300  0.97566433  1.0
  C  C21  3  0.00360000  0.06670000  0.30915667  1.0
  C  C22  3  0.01280000  0.62700000  0.79905333  1.0
  C  C23  3  0.03730000  0.15060000  0.53231000  1.0
  C  C24  3  0.07920000  0.05000000  0.92552333  1.0
  C  C25  3  0.18150000  0.74830000  0.46772000  1.0
  C  C26  3  0.22040000  0.56130000  0.02348667  1.0
  C  C27  3  0.24290000  0.24140000  0.52412000  1.0
  C  C28  3  0.26830000  0.08400000  0.63351000  1.0
  C  C29  3  0.27760000  0.63680000  0.49984000  1.0
  C  C30  3  0.35730000  0.20650000  0.57378000  1.0
  C+  C31  3  0.22810000  0.56820000  0.71906333  0.6666666666666666
  Fl+  Fl32  3  0.22810000  0.56820000  0.71906333
  0.16666666666666666
  Pb+  Pb33  3  0.22810000  0.56820000  0.71906333
  0.16666666666666666
  C  C34  3  0.52400000  0.10780000  0.16609667  1.0
  C  C35  3  0.57500000  0.31460000  0.55050000  1.0
  C  C36  3  0.60320000  0.32940000  0.27891667  1.0
  N  N37  3  0.21810000  0.69570000  0.77543333  1.0
  O  O38  3  0.11380000  0.42090000  0.07984667  1.0
  O  O39  3  0.55970000  0.37980000  0.84495333  1.0
