# generated using pymatgen
data_Cs4KNa2Cd4BiSb6As3PH65C76N37O12
_symmetry_space_group_name_H-M  'I 41'
_cell_length_a   12.34770000
_cell_length_b   12.34770000
_cell_length_c   14.73790000
_cell_angle_alpha   90.00000000
_cell_angle_beta   90.00000000
_cell_angle_gamma   90.00000000
_symmetry_Int_Tables_number   80
_chemical_formula_structural   Cs4KNa2Cd4BiSb6As3PH65C76N37O12
_chemical_formula_sum
'Cs4 K1 Na2 Cd4 Bi1 Sb6 As3 P1 H65 C76 N37 O12'
_cell_volume   2247.02417061
_cell_formula_units_Z   1
loop_
 _symmetry_equiv_pos_site_id
 _symmetry_equiv_pos_as_xyz
  1  'x, y, z'
  2  '-y+1/2, x, z+3/4'
  3  '-x, -y, z'
  4  'y+1/2, -x, z+3/4'
  5  'x+1/2, y+1/2, z+1/2'
  6  '-y, x+1/2, z+1/4'
  7  '-x+1/2, -y+1/2, z+1/2'
  8  'y, -x+1/2, z+1/4'
loop_
 _atom_site_type_symbol
 _atom_site_label
 _atom_site_symmetry_multiplicity
 _atom_site_fract_x
 _atom_site_fract_y
 _atom_site_fract_z
 _atom_site_occupancy
  H+  H0  8  0.04190000  0.27520000  0.01260000  0.125
  Cs+  Cs1  8  0.04190000  0.27520000  0.01260000  0.5
  Na+  Na2  8  0.04190000  0.27520000  0.01260000  0.25
  K+  K3  8  0.04190000  0.27520000  0.01260000  0.125
  Cd  Cd4  4  0.00000000  0.00000000  0.12805000  1.0
  Sb+  Sb5  8  0.01240000  0.12400000  0.84860000  0.375
  P+  P6  8  0.01240000  0.12400000  0.84860000  0.125
  As+  As7  8  0.01240000  0.12400000  0.84860000  0.375
  Bi+  Bi8  8  0.01240000  0.12400000  0.84860000  0.125
  H  H9  8  0.00760000  0.10540000  0.79250000  1.0
  H  H10  8  0.03310000  0.28910000  0.84910000  1.0
  H  H11  8  0.04920000  0.24220000  0.27790000  1.0
  H  H12  8  0.08140000  0.87790000  0.49850000  1.0
  H  H13  8  0.08180000  0.19320000  0.59460000  1.0
  H  H14  8  0.12730000  0.74450000  0.65480000  1.0
  H  H15  8  0.19010000  0.75040000  0.09230000  1.0
  H  H16  8  0.20640000  0.24320000  0.38240000  1.0
  C  C17  8  0.00700000  0.05910000  0.92210000  1.0
  C  C18  8  0.02720000  0.22570000  0.88270000  1.0
  C  C19  8  0.03180000  0.21770000  0.97280000  1.0
  C  C20  8  0.04780000  0.30480000  0.50460000  1.0
  C  C21  8  0.05290000  0.72750000  0.46100000  1.0
  C  C22  8  0.10280000  0.18940000  0.28060000  1.0
  C  C23  8  0.18210000  0.69410000  0.66450000  1.0
  C  C24  8  0.19030000  0.19100000  0.33890000  1.0
  C  C25  8  0.19560000  0.71720000  0.37990000  1.0
  C  C26  4  0.00000000  0.00000000  0.63530000  1.0
  Sb+  Sb27  8  0.10730000  0.66060000  0.40740000  0.375
  N+  N28  8  0.10730000  0.66060000  0.40740000  0.625
  N  N29  8  0.01940000  0.11200000  0.99730000  1.0
  N  N30  8  0.09860000  0.39320000  0.47730000  1.0
  N  N31  8  0.10120000  0.25290000  0.56940000  1.0
  N  N32  8  0.10270000  0.82310000  0.46720000  1.0
  O  O33  8  0.01320000  0.08990000  0.67140000  1.0
  O  O34  4  0.00000000  0.00000000  0.54150000  1.0
