# generated using pymatgen
data_Ca44Re16Po0.33333333Se5.66666667S1O89
_symmetry_space_group_name_H-M  'I 41'
_cell_length_a   11.07000000
_cell_length_b   11.07000000
_cell_length_c   16.09300000
_cell_angle_alpha   90.00000000
_cell_angle_beta   90.00000000
_cell_angle_gamma   90.00000000
_symmetry_Int_Tables_number   80
_chemical_formula_structural   Ca44Re16Po0.33333333Se5.66666667S1O89
_chemical_formula_sum   'Ca44 Re16 Po0.33333333 Se5.66666667 S1 O89'
_cell_volume   1972.11507570
_cell_formula_units_Z   1
loop_
 _symmetry_equiv_pos_site_id
 _symmetry_equiv_pos_as_xyz
  1  'x, y, z'
  2  '-y, x+1/2, z+1/4'
  3  '-x, -y, z'
  4  'y, -x+1/2, z+1/4'
  5  'x+1/2, y+1/2, z+1/2'
  6  '-y+1/2, x, z+3/4'
  7  '-x+1/2, -y+1/2, z+1/2'
  8  'y+1/2, -x, z+3/4'
loop_
 _atom_type_symbol
 _atom_type_oxidation_number
  Ca0+  0.0
  Re0+  0.0
  Po0+  0.0
  Se0+  0.0
  S0+  0.0
  O0+  0.0
loop_
 _atom_site_type_symbol
 _atom_site_label
 _atom_site_symmetry_multiplicity
 _atom_site_fract_x
 _atom_site_fract_y
 _atom_site_fract_z
 _atom_site_occupancy
  Ca0+  Ca0  8  0.01900000  0.21950000  0.28950000  1.0
  Ca0+  Ca1  8  0.01910000  0.71700000  0.71120000  1.0
  Ca0+  Ca2  8  0.20090000  0.23190000  0.86340000  1.0
  Ca0+  Ca3  8  0.20200000  0.73320000  0.13530000  1.0
  Ca0+  Ca4  4  0.00000000  0.00000000  0.12470000  1.0
  Ca0+  Ca5  4  0.00000000  0.00000000  0.62680000  1.0
  Ca0+  Ca6  4  0.00000000  0.00000000  0.91340000  1.0
  Re0+  Re7  8  0.00012000  0.25067000  0.50038000  1.0
  Re0+  Re8  8  0.00050000  0.25691000  0.00000000  1.0
  Se0+  Se9  8  0.08420000  0.33320000  0.58630000
  0.7083333333333334
  Po0+  Po10  8  0.08420000  0.33320000  0.58630000
  0.041666666666666664
  S0+  S11  8  0.08420000  0.33320000  0.58630000  0.125
  O0+  O12  8  0.08420000  0.33320000  0.58630000  0.125
  O0+  O13  8  0.00930000  0.29900000  0.11570000  1.0
  O0+  O14  8  0.00960000  0.79060000  0.88250000  1.0
  O0+  O15  8  0.08120000  0.83300000  0.41480000  1.0
  O0+  O16  8  0.10230000  0.11620000  0.52090000  1.0
  O0+  O17  8  0.10340000  0.61840000  0.47760000  1.0
  O0+  O18  8  0.10350000  0.81560000  0.57700000  1.0
  O0+  O19  8  0.10760000  0.31460000  0.42370000  1.0
  O0+  O20  8  0.11070000  0.88390000  0.02730000  1.0
  O0+  O21  8  0.11850000  0.38020000  0.96730000  1.0
  O0+  O22  8  0.13090000  0.14920000  0.00910000  1.0
  O0+  O23  8  0.13870000  0.65660000  0.98730000  1.0
