# generated using pymatgen
data_Sr4Li8Al16Po16Bi3Te3P13Se4O57
_symmetry_space_group_name_H-M  'I m c b'
_cell_length_a   11.55600000
_cell_length_b   15.84700000
_cell_length_c   7.31500000
_cell_angle_alpha   90.00000000
_cell_angle_beta   90.00000000
_cell_angle_gamma   90.00000000
_symmetry_Int_Tables_number   72
_chemical_formula_structural   Sr4Li8Al16Po16Bi3Te3P13Se4O57
_chemical_formula_sum   'Sr4 Li8 Al16 Po16 Bi3 Te3 P13 Se4 O57'
_cell_volume   1339.58082258
_cell_formula_units_Z   1
loop_
 _symmetry_equiv_pos_site_id
 _symmetry_equiv_pos_as_xyz
  1  'x, y, z'
  2  '-x, -y, -z'
  3  'x, -y, -z'
  4  '-x, y, z'
  5  '-x+1/2, -y, z'
  6  'x+1/2, y, -z'
  7  '-x+1/2, y, -z'
  8  'x+1/2, -y, z'
  9  'x+1/2, y+1/2, z+1/2'
  10  '-x+1/2, -y+1/2, -z+1/2'
  11  'x+1/2, -y+1/2, -z+1/2'
  12  '-x+1/2, y+1/2, z+1/2'
  13  '-x, -y+1/2, z+1/2'
  14  'x, y+1/2, -z+1/2'
  15  '-x, y+1/2, -z+1/2'
  16  'x, -y+1/2, z+1/2'
loop_
 _atom_site_type_symbol
 _atom_site_label
 _atom_site_symmetry_multiplicity
 _atom_site_fract_x
 _atom_site_fract_y
 _atom_site_fract_z
 _atom_site_occupancy
  Sr  Sr0  4  0.25000000  0.00000000  0.00000000  1
  Li  Li1  8  0.00000000  0.21490000  0.22770000  1
  Al  Al2  16  0.13070000  0.12730000  0.63740000  1
  P+  P3  8  0.25000000  0.20780000  0.00000000  0.625
  Bi+  Bi4  8  0.25000000  0.20780000  0.00000000  0.375
  Po+  Po5  16  0.10830000  0.01430000  0.72750000  0.6875
  Se+  Se6  16  0.10830000  0.01430000  0.72750000  0.25
  Te+  Te7  16  0.10830000  0.01430000  0.72750000  0.0625
  P  P8  8  0.00000000  0.04240000  0.27310000  1
  Po+  Po9  8  0.00000000  0.09860000  0.45020000  0.625
  Te+  Te10  8  0.00000000  0.09860000  0.45020000  0.25
  O+  O11  8  0.00000000  0.09860000  0.45020000  0.125
  O  O12  16  0.14380000  0.23680000  0.53870000  1
  O  O13  16  0.22570000  0.14850000  0.83890000  1
  O  O14  8  0.00000000  0.10070000  0.11070000  1
  O  O15  8  0.00000000  0.16370000  0.76060000  1
  O  O16  8  0.25000000  0.08830000  0.50000000  1
