# generated using pymatgen
data_Cs8Bh0.16666667Mn1.5Re2.33333333S8
_symmetry_space_group_name_H-M  'I b a m'
_cell_length_a   7.58900000
_cell_length_b   13.78100000
_cell_length_c   6.41400000
_cell_angle_alpha   90.00000000
_cell_angle_beta   90.00000000
_cell_angle_gamma   90.00000000
_symmetry_Int_Tables_number   72
_chemical_formula_structural   Cs8Bh0.16666667Mn1.5Re2.33333333S8
_chemical_formula_sum   'Cs8 Bh0.16666667 Mn1.5 Re2.33333333 S8'
_cell_volume   670.80183373
_cell_formula_units_Z   1
loop_
 _symmetry_equiv_pos_site_id
 _symmetry_equiv_pos_as_xyz
  1  'x, y, z'
  2  '-x, -y, -z'
  3  '-x, -y, z'
  4  'x, y, -z'
  5  'x, -y, -z+1/2'
  6  '-x, y, z+1/2'
  7  '-x, y, -z+1/2'
  8  'x, -y, z+1/2'
  9  'x+1/2, y+1/2, z+1/2'
  10  '-x+1/2, -y+1/2, -z+1/2'
  11  '-x+1/2, -y+1/2, z+1/2'
  12  'x+1/2, y+1/2, -z+1/2'
  13  'x+1/2, -y+1/2, -z'
  14  '-x+1/2, y+1/2, z'
  15  '-x+1/2, y+1/2, -z'
  16  'x+1/2, -y+1/2, z'
loop_
 _atom_type_symbol
 _atom_type_oxidation_number
  Cs0+  0.0
  Mn0+  0.0
  Re0+  0.0
  S0+  0.0
  Bh0+  0.0
loop_
 _atom_site_type_symbol
 _atom_site_label
 _atom_site_symmetry_multiplicity
 _atom_site_fract_x
 _atom_site_fract_y
 _atom_site_fract_z
 _atom_site_occupancy
  Cs0+  Cs0  8  0.15720000  0.34960000  0.50000000  1.0
  Bh0+  Bh1  4  0.00000000  0.00000000  0.25000000
  0.041666666666666664
  Re0+  Re2  4  0.00000000  0.00000000  0.25000000
  0.5833333333333334
  Mn0+  Mn3  4  0.00000000  0.00000000  0.25000000  0.375
  S0+  S4  8  0.17790000  0.09530000  0.50000000  1.0
