# generated using pymatgen
data_Cd4Bi1.25P0.25H24C32S8N18.25Mc0.25
_symmetry_space_group_name_H-M  'P 21 21 2'
_cell_length_a   11.23980000
_cell_length_b   14.83260000
_cell_length_c   7.34490000
_cell_angle_alpha   90.00000000
_cell_angle_beta   90.00000000
_cell_angle_gamma   90.00000000
_symmetry_Int_Tables_number   18
_chemical_formula_structural   Cd4Bi1.25P0.25H24C32S8N18.25Mc0.25
_chemical_formula_sum   'Cd4 Bi1.25 P0.25 H24 C32 S8 N18.25 Mc0.25'
_cell_volume   1224.50836364
_cell_formula_units_Z   1
loop_
 _symmetry_equiv_pos_site_id
 _symmetry_equiv_pos_as_xyz
  1  'x, y, z'
  2  '-x, -y, z'
  3  'x+1/2, -y+1/2, -z'
  4  '-x+1/2, y+1/2, -z'
loop_
 _atom_site_type_symbol
 _atom_site_label
 _atom_site_symmetry_multiplicity
 _atom_site_fract_x
 _atom_site_fract_y
 _atom_site_fract_z
 _atom_site_occupancy
  Cd  Cd0  4  0.04982000  0.21988000  0.54907000  1.0
  H  H1  4  0.01490000  0.13220000  0.15360000  1.0
  H  H2  4  0.10040000  0.32060000  0.92980000  1.0
  H  H3  4  0.12840000  0.42440000  0.45310000  1.0
  H  H4  4  0.18440000  0.55760000  0.56830000  1.0
  H  H5  4  0.18670000  0.57360000  0.86990000  1.0
  H  H6  2  0.00000000  0.00000000  0.60610000  1.0
  H  H7  2  0.00000000  0.00000000  0.99740000  1.0
  C  C8  4  0.00970000  0.07820000  0.21720000  1.0
  C  C9  4  0.11700000  0.37010000  0.85640000  1.0
  C  C10  4  0.13370000  0.43010000  0.57890000  1.0
  C  C11  4  0.16540000  0.50960000  0.64450000  1.0
  C  C12  4  0.16850000  0.51730000  0.82200000  1.0
  C  C13  4  0.17320000  0.68140000  0.30750000  1.0
  C  C14  4  0.22410000  0.77360000  0.73450000  1.0
  C  C15  2  0.00000000  0.00000000  0.12410000  1.0
  C  C16  2  0.00000000  0.00000000  0.47950000  1.0
  S  S17  4  0.10244000  0.81590000  0.81940000  1.0
  S  S18  4  0.20539000  0.13403000  0.77380000  1.0
  Bi+  Bi19  4  0.08900000  0.71550000  0.36310000  0.3125
  N+  N20  4  0.08900000  0.71550000  0.36310000  0.5625
  Mc+  Mc21  4  0.08900000  0.71550000  0.36310000  0.0625
  P+  P22  4  0.08900000  0.71550000  0.36310000  0.0625
  N  N23  4  0.01180000  0.07930000  0.39650000  1.0
  N  N24  4  0.10930000  0.35850000  0.67730000  1.0
  N  N25  4  0.14690000  0.44810000  0.94110000  1.0
  N  N26  4  0.18950000  0.24420000  0.32200000  1.0
