# generated using pymatgen
data_Cs0.33333333Na1.66666667Li1H45C32O12F12
_symmetry_space_group_name_H-M  'P 21 21 2'
_cell_length_a   28.68320000
_cell_length_b   5.05720000
_cell_length_c   7.92450000
_cell_angle_alpha   90.00000000
_cell_angle_beta   90.00000000
_cell_angle_gamma   90.00000000
_symmetry_Int_Tables_number   18
_chemical_formula_structural
Cs0.33333333Na1.66666667Li1H45C32O12F12
_chemical_formula_sum
'Cs0.33333333 Na1.66666667 Li1 H45 C32 O12 F12'
_cell_volume   1149.50165305
_cell_formula_units_Z   1
loop_
 _symmetry_equiv_pos_site_id
 _symmetry_equiv_pos_as_xyz
  1  'x, y, z'
  2  '-x, -y, z'
  3  '-x+1/2, y+1/2, -z'
  4  'x+1/2, -y+1/2, -z'
loop_
 _atom_site_type_symbol
 _atom_site_label
 _atom_site_symmetry_multiplicity
 _atom_site_fract_x
 _atom_site_fract_y
 _atom_site_fract_z
 _atom_site_occupancy
  Na+  Na0  4  0.23970000  0.35460000  0.95160000
  0.4166666666666667
  Cs+  Cs1  4  0.23970000  0.35460000  0.95160000
  0.08333333333333333
  H+  H2  4  0.23970000  0.35460000  0.95160000  0.25
  Li+  Li3  4  0.23970000  0.35460000  0.95160000  0.25
  H  H4  4  0.01180000  0.77510000  0.68380000  1.0
  H  H5  4  0.01220000  0.77720000  0.48600000  1.0
  H  H6  4  0.07320000  0.09100000  0.49070000  1.0
  H  H7  4  0.07330000  0.08110000  0.68840000  1.0
  H  H8  4  0.09770000  0.63570000  0.67920000  1.0
  H  H9  4  0.09780000  0.64610000  0.48140000  1.0
  H  H10  4  0.15780000  0.95280000  0.68560000  1.0
  H  H11  4  0.15810000  0.96030000  0.48810000  1.0
  H  H12  4  0.18470000  0.51520000  0.67980000  1.0
  H  H13  4  0.20930000  0.20160000  0.17140000  1.0
  H  H14  4  0.22000000  0.70540000  0.58950000  1.0
  C  C15  4  0.01740000  0.88490000  0.58550000  1.0
  C  C16  4  0.06792000  0.97710000  0.58730000  1.0
  C  C17  4  0.10295000  0.74990000  0.58270000  1.0
  C  C18  4  0.14860000  0.37810000  0.08710000  1.0
  C  C19  4  0.15310000  0.84670000  0.58510000  1.0
  C  C20  4  0.18910000  0.62850000  0.58230000  1.0
  C  C21  4  0.19943000  0.38090000  0.14130000  1.0
  C  C22  4  0.20618000  0.56500000  0.29140000  1.0
  O  O23  4  0.18564000  0.46940000  0.42813000  1.0
  O  O24  4  0.22652000  0.47490000  0.00716000  1.0
  O  O25  4  0.22802000  0.76850000  0.28282000  1.0
  F  F26  4  0.12136000  0.26280000  0.20115000  1.0
  F  F27  4  0.13264000  0.62140000  0.05980000  1.0
  F  F28  4  0.14329000  0.24420000  0.94292000  1.0
