# generated using pymatgen
data_Nb0.5V0.5Cu0.5Ag1Rg1.5Po1.5S2O0.5
_symmetry_space_group_name_H-M  'P -4 3 m'
_cell_length_a   5.37000000
_cell_length_b   5.37000000
_cell_length_c   5.37000000
_cell_angle_alpha   90.00000000
_cell_angle_beta   90.00000000
_cell_angle_gamma   90.00000000
_symmetry_Int_Tables_number   215
_chemical_formula_structural   Nb0.5V0.5Cu0.5Ag1Rg1.5Po1.5S2O0.5
_chemical_formula_sum   'Nb0.5 V0.5 Cu0.5 Ag1 Rg1.5 Po1.5 S2 O0.5'
_cell_volume   154.85415300
_cell_formula_units_Z   1
loop_
 _symmetry_equiv_pos_site_id
 _symmetry_equiv_pos_as_xyz
  1  'x, y, z'
  2  'y, -x, -z'
  3  '-x, -y, z'
  4  '-y, x, -z'
  5  'x, -y, -z'
  6  'y, x, z'
  7  '-x, y, -z'
  8  '-y, -x, z'
  9  'z, x, y'
  10  '-z, y, -x'
  11  'z, -x, -y'
  12  '-z, -y, x'
  13  '-z, x, -y'
  14  'z, y, x'
  15  '-z, -x, y'
  16  'z, -y, -x'
  17  'y, z, x'
  18  '-x, -z, y'
  19  '-y, z, -x'
  20  'x, -z, -y'
  21  '-y, -z, x'
  22  'x, z, y'
  23  'y, -z, -x'
  24  '-x, z, -y'
loop_
 _atom_type_symbol
 _atom_type_oxidation_number
  Nb5+  5.0
  V5+  5.0
  Cu+  1.0
  Ag+  1.0
  Po2-  -2.0
  S2-  -2.0
  O2-  -2.0
  Rg+  1.0
loop_
 _atom_site_type_symbol
 _atom_site_label
 _atom_site_symmetry_multiplicity
 _atom_site_fract_x
 _atom_site_fract_y
 _atom_site_fract_z
 _atom_site_occupancy
  V5+  V0  1  0.00000000  0.00000000  0.00000000  0.5
  Nb5+  Nb1  1  0.00000000  0.00000000  0.00000000  0.5
  Cu+  Cu2  3  0.00000000  0.00000000  0.50000000
  0.16666666666666666
  Ag+  Ag3  3  0.00000000  0.00000000  0.50000000
  0.3333333333333333
  Rg+  Rg4  3  0.00000000  0.00000000  0.50000000  0.5
  Po2-  Po5  4  0.23500000  0.23500000  0.23500000  0.375
  O2-  O6  4  0.23500000  0.23500000  0.23500000  0.125
  S2-  S7  4  0.23500000  0.23500000  0.23500000  0.5
