# generated using pymatgen
data_Po1B3Te8.5H60C16Se2N12O0.5
_symmetry_space_group_name_H-M  'P -4 3 m'
_cell_length_a   10.57220000
_cell_length_b   10.57220000
_cell_length_c   10.57220000
_cell_angle_alpha   90.00000000
_cell_angle_beta   90.00000000
_cell_angle_gamma   90.00000000
_symmetry_Int_Tables_number   215
_chemical_formula_structural   Po1B3Te8.5H60C16Se2N12O0.5
_chemical_formula_sum   'Po1 B3 Te8.5 H60 C16 Se2 N12 O0.5'
_cell_volume   1181.66973083
_cell_formula_units_Z   1
loop_
 _symmetry_equiv_pos_site_id
 _symmetry_equiv_pos_as_xyz
  1  'x, y, z'
  2  'y, -x, -z'
  3  '-x, -y, z'
  4  '-y, x, -z'
  5  'x, -y, -z'
  6  'y, x, z'
  7  '-x, y, -z'
  8  '-y, -x, z'
  9  'z, x, y'
  10  '-z, y, -x'
  11  'z, -x, -y'
  12  '-z, -y, x'
  13  '-z, x, -y'
  14  'z, y, x'
  15  '-z, -x, y'
  16  'z, -y, -x'
  17  'y, z, x'
  18  '-x, -z, y'
  19  '-y, z, -x'
  20  'x, -z, -y'
  21  '-y, -z, x'
  22  'x, z, y'
  23  'y, -z, -x'
  24  '-x, z, -y'
loop_
 _atom_site_type_symbol
 _atom_site_label
 _atom_site_symmetry_multiplicity
 _atom_site_fract_x
 _atom_site_fract_y
 _atom_site_fract_z
 _atom_site_occupancy
  B  B0  3  0.00000000  0.50000000  0.50000000  1.0
  H  H1  24  0.01690000  0.27540000  0.61980000  1.0
  H  H2  24  0.23620000  0.33580000  0.51110000  1.0
  H  H3  12  0.10110000  0.29190000  0.29190000  1.0
  O+  O4  12  0.08800000  0.42355000  0.42355000
  0.041666666666666664
  Te+  Te5  12  0.08800000  0.42355000  0.42355000
  0.7083333333333334
  Po+  Po6  12  0.08800000  0.42355000  0.42355000
  0.08333333333333333
  Se+  Se7  12  0.08800000  0.42355000  0.42355000
  0.16666666666666666
  C  C8  12  0.03440000  0.33550000  0.33550000  1.0
  C  C9  4  0.35230000  0.35230000  0.64770000  1.0
  N  N10  12  0.30190000  0.45500000  0.69810000  1.0
