# generated using pymatgen
data_K12Lu4Si12Po1.5S2.5O32
_symmetry_space_group_name_H-M  'P m 21 n'
_cell_length_a   14.01100000
_cell_length_b   12.91900000
_cell_length_c   5.85300000
_cell_angle_alpha   90.00000000
_cell_angle_beta   90.00000000
_cell_angle_gamma   90.00000000
_symmetry_Int_Tables_number   31
_chemical_formula_structural   K12Lu4Si12Po1.5S2.5O32
_chemical_formula_sum   'K12 Lu4 Si12 Po1.5 S2.5 O32'
_cell_volume   1059.44046198
_cell_formula_units_Z   1
loop_
 _symmetry_equiv_pos_site_id
 _symmetry_equiv_pos_as_xyz
  1  'x, y, z'
  2  '-x+1/2, y+1/2, -z'
  3  '-x, y, z'
  4  'x+1/2, y+1/2, -z'
loop_
 _atom_type_symbol
 _atom_type_oxidation_number
  K0+  0.0
  Lu0+  0.0
  Si0+  0.0
  Po0+  0.0
  S0+  0.0
  O0+  0.0
loop_
 _atom_site_type_symbol
 _atom_site_label
 _atom_site_symmetry_multiplicity
 _atom_site_fract_x
 _atom_site_fract_y
 _atom_site_fract_z
 _atom_site_occupancy
  K0+  K0  4  0.23490000  0.12800000  0.65740000  1.0
  K0+  K1  2  0.00000000  0.11090000  0.31020000  1.0
  K0+  K2  2  0.00000000  0.34180000  0.85570000  1.0
  K0+  K3  2  0.00000000  0.62460000  0.64870000  1.0
  K0+  K4  2  0.00000000  0.83300000  0.14400000  1.0
  Lu0+  Lu5  4  0.24300000  0.95920000  0.14900000  1.0
  Si0+  Si6  4  0.11150000  0.88130000  0.65130000  1.0
  Si0+  Si7  4  0.11500000  0.41830000  0.35130000  1.0
  Si0+  Si8  4  0.23310000  0.24390000  0.17190000  1.0
  S0+  S9  4  0.16760000  0.76990000  0.68620000  0.625
  Po0+  Po10  4  0.16760000  0.76990000  0.68620000  0.375
  O0+  O11  4  0.12960000  0.95500000  0.86860000  1.0
  O0+  O12  4  0.13060000  0.93280000  0.41190000  1.0
  O0+  O13  4  0.14330000  0.46820000  0.58830000  1.0
  O0+  O14  4  0.14710000  0.48570000  0.13270000  1.0
  O0+  O15  4  0.14750000  0.29590000  0.32740000  1.0
  O0+  O16  4  0.21350000  0.12340000  0.17500000  1.0
  O0+  O17  4  0.23650000  0.29400000  0.92000000  1.0
  O0+  O18  2  0.00000000  0.40620000  0.35220000  1.0
  O0+  O19  2  0.00000000  0.84030000  0.66220000  1.0
