# generated using pymatgen
data_Eu4Sn3.25Ge0.5H12C0.25S4O28
_symmetry_space_group_name_H-M  'P 41'
_cell_length_a   6.91300000
_cell_length_b   6.91300000
_cell_length_c   11.59560000
_cell_angle_alpha   90.00000000
_cell_angle_beta   90.00000000
_cell_angle_gamma   90.00000000
_symmetry_Int_Tables_number   76
_chemical_formula_structural   Eu4Sn3.25Ge0.5H12C0.25S4O28
_chemical_formula_sum   'Eu4 Sn3.25 Ge0.5 H12 C0.25 S4 O28'
_cell_volume   554.14872630
_cell_formula_units_Z   1
loop_
 _symmetry_equiv_pos_site_id
 _symmetry_equiv_pos_as_xyz
  1  'x, y, z'
  2  '-y, x, z+1/4'
  3  '-x, -y, z+1/2'
  4  'y, -x, z+3/4'
loop_
 _atom_site_type_symbol
 _atom_site_label
 _atom_site_symmetry_multiplicity
 _atom_site_fract_x
 _atom_site_fract_y
 _atom_site_fract_z
 _atom_site_occupancy
  Eu  Eu0  4  0.12652000  0.38403000  0.41339000  1.0
  Sn+  Sn1  4  0.37000000  0.62070000  0.95050000  0.8125
  Ge+  Ge2  4  0.37000000  0.62070000  0.95050000  0.125
  C+  C3  4  0.37000000  0.62070000  0.95050000  0.0625
  H  H4  4  0.03100000  0.87400000  0.72700000  1.0
  H  H5  4  0.08100000  0.68200000  0.70400000  1.0
  H  H6  4  0.36800000  0.60000000  0.87200000  1.0
  S  S7  4  0.11222000  0.27383000  0.72016000  1.0
  O  O8  4  0.04420000  0.87140000  0.20420000  1.0
  O  O9  4  0.06940000  0.39170000  0.82200000  1.0
  O  O10  4  0.07170000  0.75830000  0.76060000  1.0
  O  O11  4  0.12020000  0.40070000  0.61870000  1.0
  O  O12  4  0.17750000  0.70430000  0.48730000  1.0
  O  O13  4  0.21540000  0.66310000  0.99770000  1.0
  O  O14  4  0.32960000  0.53350000  0.24310000  1.0
