# generated using pymatgen
data_Fr1.5Cs0.5K5.5Rb0.5Na5.5Li0.5P16H2S2O54
_symmetry_space_group_name_H-M  'P 41'
_cell_length_a   7.92800000
_cell_length_b   7.92800000
_cell_length_c   21.66000000
_cell_angle_alpha   90.00000000
_cell_angle_beta   90.00000000
_cell_angle_gamma   90.00000000
_symmetry_Int_Tables_number   76
_chemical_formula_structural
Fr1.5Cs0.5K5.5Rb0.5Na5.5Li0.5P16H2S2O54
_chemical_formula_sum
'Fr1.5 Cs0.5 K5.5 Rb0.5 Na5.5 Li0.5 P16 H2 S2 O54'
_cell_volume   1361.39996544
_cell_formula_units_Z   1
loop_
 _symmetry_equiv_pos_site_id
 _symmetry_equiv_pos_as_xyz
  1  'x, y, z'
  2  '-y, x, z+1/4'
  3  '-x, -y, z+1/2'
  4  'y, -x, z+3/4'
loop_
 _atom_site_type_symbol
 _atom_site_label
 _atom_site_symmetry_multiplicity
 _atom_site_fract_x
 _atom_site_fract_y
 _atom_site_fract_z
 _atom_site_occupancy
  K  K0  4  0.01600000  0.62770000  0.63493000  1
  K+  K1  4  0.15460000  0.65140000  0.32318000  0.375
  Na+  Na2  4  0.15460000  0.65140000  0.32318000  0.375
  Fr+  Fr3  4  0.15460000  0.65140000  0.32318000  0.125
  Rb+  Rb4  4  0.15460000  0.65140000  0.32318000  0.125
  Na  Na5  4  0.29000000  0.56700000  0.81560000  1
  H+  H6  4  0.06640000  0.20550000  0.39390000  0.5
  Fr+  Fr7  4  0.06640000  0.20550000  0.39390000  0.25
  Cs+  Cs8  4  0.06640000  0.20550000  0.39390000  0.125
  Li+  Li9  4  0.06640000  0.20550000  0.39390000  0.125
  P  P10  4  0.07190000  0.08760000  0.00000000  1
  P  P11  4  0.13030000  0.43340000  0.95992000  1
  P  P12  4  0.14420000  0.27560000  0.70911000  1
  P  P13  4  0.21690000  0.50610000  0.49844000  1
  S+  S14  4  0.25440000  0.65510000  0.44870000  0.5
  O+  O15  4  0.25440000  0.65510000  0.44870000  0.5
  O  O16  4  0.01540000  0.53000000  0.50980000  1
  O  O17  4  0.06540000  0.23560000  0.64870000  1
  O  O18  4  0.07480000  0.11370000  0.21920000  1
  O  O19  4  0.09150000  0.51330000  0.89960000  1
  O  O20  4  0.10530000  0.12970000  0.76000000  1
  O  O21  4  0.10620000  0.43910000  0.74040000  1
  O  O22  4  0.11070000  0.23190000  0.94920000  1
  O  O23  4  0.13050000  0.84930000  0.81030000  1
  O  O24  4  0.23300000  0.31740000  0.31050000  1
  O  O25  4  0.24550000  0.34300000  0.46650000  1
  O  O26  4  0.29380000  0.46760000  0.99100000  1
  O  O27  4  0.30040000  0.54380000  0.55820000  1
  O  O28  4  0.31850000  0.45310000  0.15050000  1
