# generated using pymatgen
data_Ce1.5Pm1.5Sm0.5Tm0.5H12C4S4O24.5Lv3.5
_symmetry_space_group_name_H-M  'P 41'
_cell_length_a   7.00780000
_cell_length_b   7.00780000
_cell_length_c   11.83990000
_cell_angle_alpha   90.00000000
_cell_angle_beta   90.00000000
_cell_angle_gamma   90.00000000
_symmetry_Int_Tables_number   76
_chemical_formula_structural   Ce1.5Pm1.5Sm0.5Tm0.5H12C4S4O24.5Lv3.5
_chemical_formula_sum
'Ce1.5 Pm1.5 Sm0.5 Tm0.5 H12 C4 S4 O24.5 Lv3.5'
_cell_volume   581.44873742
_cell_formula_units_Z   1
loop_
 _symmetry_equiv_pos_site_id
 _symmetry_equiv_pos_as_xyz
  1  'x, y, z'
  2  '-y, x, z+1/4'
  3  '-x, -y, z+1/2'
  4  'y, -x, z+3/4'
loop_
 _atom_site_type_symbol
 _atom_site_label
 _atom_site_symmetry_multiplicity
 _atom_site_fract_x
 _atom_site_fract_y
 _atom_site_fract_z
 _atom_site_occupancy
  Pm+  Pm0  4  0.10782000  0.64399000  0.90528700  0.375
  Tm+  Tm1  4  0.10782000  0.64399000  0.90528700  0.125
  Sm+  Sm2  4  0.10782000  0.64399000  0.90528700  0.125
  Ce+  Ce3  4  0.10782000  0.64399000  0.90528700  0.375
  H  H4  4  0.02900000  0.15900000  0.87430000  1.0
  H  H5  4  0.18200000  0.40800000  0.68940000  1.0
  H  H6  4  0.36240000  0.44600000  0.72880000  1.0
  C  C7  4  0.09170000  0.15200000  0.94240000  1.0
  S  S8  4  0.24935000  0.61470000  0.21346000  1.0
  O  O9  4  0.13330000  0.67060000  0.11590000  1.0
  O+  O10  4  0.38680000  0.46470000  0.18042000  0.125
  Lv+  Lv11  4  0.38680000  0.46470000  0.18042000  0.875
  O  O12  4  0.00970000  0.14370000  0.22870000  1.0
  O  O13  4  0.12840000  0.54270000  0.30345000  1.0
  O  O14  4  0.13660000  0.30420000  0.99154000  1.0
  O  O15  4  0.21600000  0.35000000  0.50559000  1.0
  O  O16  4  0.24540000  0.43750000  0.74943000  1.0
