# generated using pymatgen
data_Na0.5Li0.5Zn4Fe4P8H39C38.5Fl1.5O16
_symmetry_space_group_name_H-M  'P 43 2 2'
_cell_length_a   8.25000000
_cell_length_b   8.25000000
_cell_length_c   18.65500000
_cell_angle_alpha   90.00000000
_cell_angle_beta   90.00000000
_cell_angle_gamma   90.00000000
_symmetry_Int_Tables_number   95
_chemical_formula_structural   Na0.5Li0.5Zn4Fe4P8H39C38.5Fl1.5O16
_chemical_formula_sum   'Na0.5 Li0.5 Zn4 Fe4 P8 H39 C38.5 Fl1.5 O16'
_cell_volume   1269.70593750
_cell_formula_units_Z   1
loop_
 _symmetry_equiv_pos_site_id
 _symmetry_equiv_pos_as_xyz
  1  'x, y, z'
  2  '-y, x, z+3/4'
  3  '-x, -y, z+1/2'
  4  'y, -x, z+1/4'
  5  'x, -y, -z+1/2'
  6  '-y, -x, -z+3/4'
  7  '-x, y, -z'
  8  'y, x, -z+1/4'
loop_
 _atom_site_type_symbol
 _atom_site_label
 _atom_site_symmetry_multiplicity
 _atom_site_fract_x
 _atom_site_fract_y
 _atom_site_fract_z
 _atom_site_occupancy
  Zn  Zn0  4  0.07303000  0.07303000  0.12500000  1.0
  Fe  Fe1  4  0.00000000  0.49835000  0.00000000  1.0
  Li+  Li2  8  0.13360000  0.28470000  0.59040000  0.0625
  H+  H3  8  0.13360000  0.28470000  0.59040000  0.875
  Na+  Na4  8  0.13360000  0.28470000  0.59040000  0.0625
  P  P5  8  0.15534000  0.23992000  0.27353000  1.0
  H  H6  8  0.13100000  0.42460000  0.87160000  1.0
  H  H7  8  0.15000000  0.39000000  0.29820000  1.0
  H  H8  8  0.21070000  0.27100000  0.46130000  1.0
  H  H9  8  0.26880000  0.44430000  0.08150000  1.0
  C  C10  8  0.15740000  0.46300000  0.91710000  1.0
  C  C11  8  0.15840000  0.37290000  0.56130000  1.0
  C  C12  8  0.20380000  0.36650000  0.97710000  1.0
  C  C13  8  0.23460000  0.47390000  0.03580000  1.0
  C+  C14  8  0.20300000  0.36490000  0.48870000  0.8125
  Fl+  Fl15  8  0.20300000  0.36490000  0.48870000  0.1875
  O  O16  8  0.07360000  0.13530000  0.32817000  1.0
  O  O17  8  0.09020000  0.23780000  0.19834000  1.0
