# generated using pymatgen
data_Ba18Tl14Ga4PoB18Te16O54Lv
_symmetry_space_group_name_H-M  'R 3 c :H'
_cell_length_a   12.58280000
_cell_length_b   12.58280000
_cell_length_c   12.72910000
_cell_angle_alpha   90.00000000
_cell_angle_beta   90.00000000
_cell_angle_gamma   120.00000000
_symmetry_Int_Tables_number   161
_chemical_formula_structural   Ba18Tl14Ga4PoB18Te16O54Lv
_chemical_formula_sum   'Ba18 Tl14 Ga4 Po1 B18 Te16 O54 Lv1'
_cell_volume   1745.35155539
_cell_formula_units_Z   1
loop_
 _symmetry_equiv_pos_site_id
 _symmetry_equiv_pos_as_xyz
  1  'x, y, z'
  2  '-y, x-y, z'
  3  '-x+y, -x, z'
  4  '-y, -x, z+1/2'
  5  '-x+y, y, z+1/2'
  6  'x, x-y, z+1/2'
  7  'x+2/3, y+1/3, z+1/3'
  8  '-y+2/3, x-y+1/3, z+1/3'
  9  '-x+y+2/3, -x+1/3, z+1/3'
  10  '-y+2/3, -x+1/3, z+5/6'
  11  '-x+y+2/3, y+1/3, z+5/6'
  12  'x+2/3, x-y+1/3, z+5/6'
  13  'x+1/3, y+2/3, z+2/3'
  14  '-y+1/3, x-y+2/3, z+2/3'
  15  '-x+y+1/3, -x+2/3, z+2/3'
  16  '-y+1/3, -x+2/3, z+1/6'
  17  '-x+y+1/3, y+2/3, z+1/6'
  18  'x+1/3, x-y+2/3, z+1/6'
loop_
 _atom_site_type_symbol
 _atom_site_label
 _atom_site_symmetry_multiplicity
 _atom_site_fract_x
 _atom_site_fract_y
 _atom_site_fract_z
 _atom_site_occupancy
  Ba  Ba0  18  0.02788667  0.33641333  0.21324233  1.0
  Ga+  Ga1  18  0.02130000  0.12310000  0.74300000
  0.2222222222222222
  Tl+  Tl2  18  0.02130000  0.12310000  0.74300000
  0.7777777777777778
  B  B3  18  0.04250000  0.12970000  0.00350000  1.0
  O  O4  18  0.04560000  0.23830000  0.73490000  1.0
  O  O5  18  0.12430000  0.04100000  0.50150000  1.0
  Te+  Te6  18  0.08363333  0.50276667  0.67566667
  0.8888888888888888
  Lv+  Lv7  18  0.08363333  0.50276667  0.67566667
  0.05555555555555555
  Po+  Po8  18  0.08363333  0.50276667  0.67566667
  0.05555555555555555
  O  O9  18  0.11840000  0.02110000  0.24420000  1.0
