# generated using pymatgen
data_Na2Li16Bi2Sb2AsPH198C72(NCl2)18
_symmetry_space_group_name_H-M  'R 3 c :H'
_cell_length_a   14.69900000
_cell_length_b   14.69900000
_cell_length_c   19.10200000
_cell_angle_alpha   90.00000000
_cell_angle_beta   90.00000000
_cell_angle_gamma   120.00000000
_symmetry_Int_Tables_number   161
_chemical_formula_structural   Na2Li16Bi2Sb2AsPH198C72(NCl2)18
_chemical_formula_sum
'Na2 Li16 Bi2.0 Sb2.0 As1.0 P1.0 H198 C72 N18 Cl36'
_cell_volume   3574.25104010
_cell_formula_units_Z   1
loop_
 _symmetry_equiv_pos_site_id
 _symmetry_equiv_pos_as_xyz
  1  'x, y, z'
  2  '-y, x-y, z'
  3  '-x+y, -x, z'
  4  '-y+1/3, -x+2/3, z+1/6'
  5  '-x+y+1/3, y+2/3, z+1/6'
  6  'x+1/3, x-y+2/3, z+1/6'
  7  'x+2/3, y+1/3, z+1/3'
  8  '-y+2/3, x-y+1/3, z+1/3'
  9  '-x+y+2/3, -x+1/3, z+1/3'
  10  '-y, -x, z+1/2'
  11  '-x+y, y, z+1/2'
  12  'x, x-y, z+1/2'
  13  'x+1/3, y+2/3, z+2/3'
  14  '-y+1/3, x-y+2/3, z+2/3'
  15  '-x+y+1/3, -x+2/3, z+2/3'
  16  '-y+2/3, -x+1/3, z+5/6'
  17  '-x+y+2/3, y+1/3, z+5/6'
  18  'x+2/3, x-y+1/3, z+5/6'
loop_
 _atom_site_type_symbol
 _atom_site_label
 _atom_site_symmetry_multiplicity
 _atom_site_fract_x
 _atom_site_fract_y
 _atom_site_fract_z
 _atom_site_occupancy
  Li+  Li0  18  0.01443333  0.42556667  0.74336667
  0.8888888888888888
  Na+  Na1  18  0.01443333  0.42556667  0.74336667
  0.1111111111111111
  As+  As2  6  0.00000000  0.00000000  0.45845000
  0.16666666666666666
  P+  P3  6  0.00000000  0.00000000  0.45845000  0.16666666666666666
  Bi+  Bi4  6  0.00000000  0.00000000  0.45845000
  0.3333333333333333
  Sb+  Sb5  6  0.00000000  0.00000000  0.45845000
  0.3333333333333333
  H  H6  18  0.00746667  0.16263333  0.16603333  1.0
  H  H7  18  0.01796667  0.26853333  0.39283333  1.0
  H  H8  18  0.02843333  0.27346667  0.66196667  1.0
  H  H9  18  0.02866667  0.30413333  0.23443333  1.0
  H  H10  18  0.02923333  0.45826667  0.62336667  1.0
  H  H11  18  0.03816667  0.43343333  0.40743333  1.0
  H  H12  18  0.05886667  0.23293333  0.27843333  1.0
  H  H13  18  0.12473333  0.38146667  0.68426667  1.0
  H  H14  18  0.15596667  0.07243333  0.22083333  1.0
  H  H15  18  0.17850000  0.40980000  0.84330000  1.0
  H  H16  18  0.18260000  0.39850000  0.98670000  1.0
  C  C17  18  0.00113667  0.23550333  0.25575333  1.0
  C  C18  18  0.00723667  0.39698333  0.36456333  1.0
  C  C19  18  0.05271000  0.34904000  0.04181000  1.0
  C  C20  18  0.18194000  0.46951000  0.86636000  1.0
  N  N21  18  0.11381000  0.36682000  0.97588000  1.0
  Cl  Cl22  18  0.00685000  0.16333000  0.87264900  1.0
  Cl  Cl23  18  0.02079000  0.15665000  0.53356500  1.0
