# generated using pymatgen
data_K12AcBk3F28
_symmetry_space_group_name_H-M  'I 41/a :2'
_cell_length_a   9.22000000
_cell_length_b   9.22000000
_cell_length_c   18.34000000
_cell_angle_alpha   90.00000000
_cell_angle_beta   90.00000000
_cell_angle_gamma   90.00000000
_symmetry_Int_Tables_number   88
_chemical_formula_structural   K12AcBk3F28
_chemical_formula_sum   'K24 Ac2 Bk6 F56'
_cell_volume   1559.05405600
_cell_formula_units_Z   2
loop_
 _symmetry_equiv_pos_site_id
 _symmetry_equiv_pos_as_xyz
  1  'x, y, z'
  2  '-y+3/4, x+1/4, z+1/4'
  3  '-x, -y+1/2, z'
  4  'y+1/4, -x+1/4, z+1/4'
  5  '-x, -y, -z'
  6  'y+3/4, -x+1/4, -z+1/4'
  7  'x, y+1/2, -z'
  8  '-y+1/4, x+1/4, -z+1/4'
  9  'x+1/2, y+1/2, z+1/2'
  10  '-y+1/4, x+3/4, z+3/4'
  11  '-x+1/2, -y, z+1/2'
  12  'y+3/4, -x+3/4, z+3/4'
  13  '-x+1/2, -y+1/2, -z+1/2'
  14  'y+1/4, -x+3/4, -z+3/4'
  15  'x+1/2, y, -z+1/2'
  16  '-y+3/4, x+3/4, -z+3/4'
loop_
 _atom_type_symbol
 _atom_type_oxidation_number
  K0+  0.0
  Ac0+  0.0
  Bk0+  0.0
  F0+  0.0
loop_
 _atom_site_type_symbol
 _atom_site_label
 _atom_site_symmetry_multiplicity
 _atom_site_fract_x
 _atom_site_fract_y
 _atom_site_fract_z
 _atom_site_occupancy
  K0+  K0  16  0.21000000  0.49100000  0.98900000  1.0
  K0+  K1  4  0.00000000  0.25000000  0.12500000  1.0
  K0+  K2  4  0.00000000  0.25000000  0.62500000  1.0
  Ac0+  Ac3  8  0.00000000  0.25000000  0.39600000  0.25
  Bk0+  Bk4  8  0.00000000  0.25000000  0.39600000  0.75
  F0+  F5  16  0.01800000  0.10900000  0.75500000  1.0
  F0+  F6  16  0.04800000  0.02100000  0.89300000  1.0
  F0+  F7  16  0.10000000  0.02500000  0.39600000  1.0
  F0+  F8  8  0.00000000  0.25000000  0.27300000  1.0
