# generated using pymatgen
data_Mn2Si4.33333333Ge1.66666667H32C40Fl2Br4N16
_symmetry_space_group_name_H-M  'P 4 n c'
_cell_length_a   11.21780000
_cell_length_b   11.21780000
_cell_length_c   10.33090000
_cell_angle_alpha   90.00000000
_cell_angle_beta   90.00000000
_cell_angle_gamma   90.00000000
_symmetry_Int_Tables_number   104
_chemical_formula_structural
Mn2Si4.33333333Ge1.66666667H32C40Fl2Br4N16
_chemical_formula_sum
'Mn2 Si4.33333333 Ge1.66666667 H32 C40 Fl2 Br4 N16'
_cell_volume   1300.03050569
_cell_formula_units_Z   1
loop_
 _symmetry_equiv_pos_site_id
 _symmetry_equiv_pos_as_xyz
  1  'x, y, z'
  2  '-y, x, z'
  3  '-x, -y, z'
  4  'y, -x, z'
  5  '-x+1/2, y+1/2, z+1/2'
  6  'y+1/2, x+1/2, z+1/2'
  7  'x+1/2, -y+1/2, z+1/2'
  8  '-y+1/2, -x+1/2, z+1/2'
loop_
 _atom_site_type_symbol
 _atom_site_label
 _atom_site_symmetry_multiplicity
 _atom_site_fract_x
 _atom_site_fract_y
 _atom_site_fract_z
 _atom_site_occupancy
  Mn  Mn0  2  0.00000000  0.00000000  0.50000000  1.0
  H  H1  8  0.03060000  0.74410000  0.64370000  1.0
  H  H2  8  0.05620000  0.81040000  0.99020000  1.0
  H  H3  8  0.10710000  0.22820000  0.36010000  1.0
  H  H4  8  0.15030000  0.22850000  0.84390000  1.0
  C  C5  8  0.09760000  0.74200000  0.58130000  1.0
  C  C6  8  0.13070000  0.76350000  0.98830000  1.0
  C  C7  8  0.13970000  0.66870000  0.07370000  1.0
  C  C8  8  0.17340000  0.20930000  0.41960000  1.0
  C  C9  8  0.21570000  0.22750000  0.90790000  1.0
  Si+  Si10  8  0.03530000  0.64960000  0.15050000
  0.5416666666666666
  Ge+  Ge11  8  0.03530000  0.64960000  0.15050000
  0.20833333333333334
  Fl+  Fl12  8  0.03530000  0.64960000  0.15050000  0.25
  Br  Br13  2  0.00000000  0.00000000  0.24290000  1.0
  Br  Br14  2  0.00000000  0.00000000  0.75880000  1.0
  N  N15  8  0.04880000  0.37240000  0.20520000  1.0
  N  N16  8  0.11860000  0.83560000  0.50400000  1.0
