# generated using pymatgen
data_Si29.66666667Sn0.33333333Po2.66666667C2S1.33333333O60
_symmetry_space_group_name_H-M  'I m m 2'
_cell_length_a   17.81300000
_cell_length_b   17.67500000
_cell_length_c   17.83400000
_cell_angle_alpha   90.00000000
_cell_angle_beta   90.00000000
_cell_angle_gamma   90.00000000
_symmetry_Int_Tables_number   44
_chemical_formula_structural
Si29.66666667Sn0.33333333Po2.66666667C2S1.33333333O60
_chemical_formula_sum
'Si29.66666667 Sn0.33333333 Po2.66666667 C2 S1.33333333 O60'
_cell_volume   5614.94171735
_cell_formula_units_Z   1
loop_
 _symmetry_equiv_pos_site_id
 _symmetry_equiv_pos_as_xyz
  1  'x, y, z'
  2  '-x, -y, z'
  3  'x, -y, z'
  4  '-x, y, z'
  5  'x+1/2, y+1/2, z+1/2'
  6  '-x+1/2, -y+1/2, z+1/2'
  7  'x+1/2, -y+1/2, z+1/2'
  8  '-x+1/2, y+1/2, z+1/2'
loop_
 _atom_type_symbol
 _atom_type_oxidation_number
  Si0+  0.0
  Sn0+  0.0
  Po0+  0.0
  C0+  0.0
  S0+  0.0
  O0+  0.0
loop_
 _atom_site_type_symbol
 _atom_site_label
 _atom_site_symmetry_multiplicity
 _atom_site_fract_x
 _atom_site_fract_y
 _atom_site_fract_z
 _atom_site_occupancy
  Si0+  Si0  8  0.07700000  0.42300000  0.88000000  1.0
  Si0+  Si1  8  0.08200000  0.08300000  0.62700000  1.0
  Si0+  Si2  4  0.00000000  0.19900000  0.71500000  1.0
  Si0+  Si3  4  0.00000000  0.30700000  0.79200000  1.0
  Si0+  Si4  4  0.19800000  0.00000000  0.54000000  1.0
  S0+  S5  4  0.00000000  0.42000000  0.92800000  0.3333333333333333
  Po0+  Po6  4  0.00000000  0.42000000  0.92800000
  0.6666666666666666
  Si0+  Si7  4  0.19300000  0.50000000  0.96700000
  0.4166666666666667
  C0+  C8  4  0.19300000  0.50000000  0.96700000  0.5
  Sn0+  Sn9  4  0.19300000  0.50000000  0.96700000
  0.08333333333333333
  O0+  O10  8  0.07300000  0.35100000  0.82300000  1.0
  O0+  O11  8  0.07800000  0.15500000  0.68400000  1.0
  O0+  O12  8  0.14800000  0.42700000  0.93700000  1.0
  O0+  O13  8  0.15400000  0.07300000  0.57000000  1.0
  O0+  O14  4  0.00000000  0.08600000  0.57900000  1.0
  O0+  O15  4  0.00000000  0.21400000  0.80800000  1.0
  O0+  O16  4  0.00000000  0.29200000  0.69900000  1.0
  O0+  O17  4  0.08000000  0.50000000  0.83200000  1.0
  O0+  O18  4  0.08500000  0.00000000  0.67500000  1.0
  O0+  O19  4  0.21500000  0.00000000  0.44800000  1.0
  O0+  O20  4  0.21500000  0.50000000  0.05900000  1.0
