# generated using pymatgen
data_Cs2Rb0.33333333K0.33333333Na4Te1P8H1.33333333S0.33333333O30Lv0.66666667
_symmetry_space_group_name_H-M  'I m m 2'
_cell_length_a   14.50000000
_cell_length_b   7.80400000
_cell_length_c   7.00600000
_cell_angle_alpha   90.00000000
_cell_angle_beta   90.00000000
_cell_angle_gamma   90.00000000
_symmetry_Int_Tables_number   44
_chemical_formula_structural
;
Cs2Rb0.33333333K0.33333333Na4Te1P8H1.33333333S0.33333333O30Lv0.6666666
7
;
_chemical_formula_sum
;
Cs2 Rb0.33333333 K0.33333333 Na4 Te1 P8 H1.33333333 S0.33333333 O30
Lv0.66666667
;
_cell_volume   792.78494800
_cell_formula_units_Z   1
loop_
 _symmetry_equiv_pos_site_id
 _symmetry_equiv_pos_as_xyz
  1  'x, y, z'
  2  '-x, -y, z'
  3  'x, -y, z'
  4  '-x, y, z'
  5  'x+1/2, y+1/2, z+1/2'
  6  '-x+1/2, -y+1/2, z+1/2'
  7  'x+1/2, -y+1/2, z+1/2'
  8  '-x+1/2, y+1/2, z+1/2'
loop_
 _atom_site_type_symbol
 _atom_site_label
 _atom_site_symmetry_multiplicity
 _atom_site_fract_x
 _atom_site_fract_y
 _atom_site_fract_z
 _atom_site_occupancy
  Cs  Cs0  2  0.00000000  0.00000000  0.00000000  1
  Na  Na1  4  0.22160000  0.50000000  0.23020000  1
  H+  H2  2  0.00000000  0.50000000  0.18640000  0.6666666666666666
  Rb+  Rb3  2  0.00000000  0.50000000  0.18640000
  0.16666666666666666
  K+  K4  2  0.00000000  0.50000000  0.18640000  0.16666666666666666
  P  P5  8  0.10103000  0.19300000  0.49240000  1
  O  O6  8  0.10490000  0.30250000  0.32110000  1
  O  O7  8  0.16730000  0.21610000  0.65370000  1
  O+  O8  4  0.00000000  0.20040000  0.58990000  0.5
  Te+  Te9  4  0.00000000  0.20040000  0.58990000  0.25
  S+  S10  4  0.00000000  0.20040000  0.58990000
  0.08333333333333333
  Lv+  Lv11  4  0.00000000  0.20040000  0.58990000
  0.16666666666666666
  O  O12  4  0.10440000  0.00000000  0.41410000  1
  O  O13  4  0.12900000  0.50000000  0.92930000  1
  O  O14  4  0.21100000  0.00000000  0.03890000  1
