# generated using pymatgen
data_Al2Tl1.5In53.5Ga3.5B1.5Nh2Fe16S130
_symmetry_space_group_name_H-M  'I m m 2'
_cell_length_a   47.29400000
_cell_length_b   15.61180000
_cell_length_c   22.61400000
_cell_angle_alpha   90.00000000
_cell_angle_beta   90.00000000
_cell_angle_gamma   90.00000000
_symmetry_Int_Tables_number   44
_chemical_formula_structural   Al2Tl1.5In53.5Ga3.5B1.5Nh2Fe16S130
_chemical_formula_sum   'Al2 Tl1.5 In53.5 Ga3.5 B1.5 Nh2 Fe16 S130'
_cell_volume   16696.92182649
_cell_formula_units_Z   1
loop_
 _symmetry_equiv_pos_site_id
 _symmetry_equiv_pos_as_xyz
  1  'x, y, z'
  2  '-x, -y, z'
  3  'x, -y, z'
  4  '-x, y, z'
  5  'x+1/2, y+1/2, z+1/2'
  6  '-x+1/2, -y+1/2, z+1/2'
  7  'x+1/2, -y+1/2, z+1/2'
  8  '-x+1/2, y+1/2, z+1/2'
loop_
 _atom_site_type_symbol
 _atom_site_label
 _atom_site_symmetry_multiplicity
 _atom_site_fract_x
 _atom_site_fract_y
 _atom_site_fract_z
 _atom_site_occupancy
  Ga+  Ga0  8  0.24864000  0.12655000  0.02420000  0.4375
  Tl+  Tl1  8  0.24864000  0.12655000  0.02420000  0.1875
  In+  In2  8  0.24864000  0.12655000  0.02420000  0.375
  In  In3  8  0.08397000  0.12758000  0.00585000  1.0
  In  In4  8  0.12709000  0.24938000  0.88971000  1.0
  In  In5  8  0.17241000  0.12287000  0.77156000  1.0
  In  In6  8  0.17324000  0.37085000  0.77716000  1.0
  In  In7  8  0.21145000  0.25049000  0.90096000  1.0
  In  In8  4  0.04088000  0.00000000  0.12105000  1.0
  In  In9  4  0.12272000  0.00000000  0.13533000  1.0
  Fe  Fe10  8  0.16599000  0.12250000  0.01575000  1.0
  Fe  Fe11  4  0.12836000  0.00000000  0.88980000  1.0
  B+  B12  4  0.20321000  0.00000000  0.14526000  0.375
  In+  In13  4  0.20321000  0.00000000  0.14526000  0.625
  Nh+  Nh14  4  0.21585000  0.50000000  0.65017000  0.5
  Al+  Al15  4  0.21585000  0.50000000  0.65017000  0.5
  Fe  Fe16  4  0.21007000  0.00000000  0.89940000  1.0
  S  S17  8  0.04087000  0.12740000  0.06270000  1.0
  S  S18  8  0.08381000  0.25370000  0.94600000  1.0
  S  S19  8  0.12556000  0.13160000  0.07520000  1.0
  S  S20  8  0.12704000  0.11960000  0.82600000  1.0
  S  S21  8  0.12876000  0.37880000  0.83130000  1.0
  S  S22  8  0.16743000  0.24790000  0.95980000  1.0
  S  S23  8  0.17561000  0.24840000  0.71100000  1.0
  S  S24  8  0.20424000  0.12790000  0.08200000  1.0
  S  S25  8  0.21207000  0.36950000  0.59150000  1.0
  S  S26  8  0.21335000  0.11830000  0.83790000  1.0
  S  S27  8  0.21392000  0.37840000  0.84070000  1.0
  S  S28  8  0.24784000  0.24520000  0.46530000  1.0
  S  S29  4  0.08010000  0.00000000  0.19000000  1.0
  S  S30  4  0.08580000  0.00000000  0.93990000  1.0
  S  S31  4  0.16110000  0.00000000  0.20540000  1.0
  S  S32  4  0.16760000  0.00000000  0.95400000  1.0
  S  S33  4  0.17210000  0.50000000  0.71090000  1.0
  S  S34  4  0.17420000  0.00000000  0.70880000  1.0
  S  S35  4  0.24180000  0.00000000  0.21380000  1.0
  S  S36  4  0.24920000  0.50000000  0.45720000  1.0
  S  S37  2  0.00000000  0.00000000  0.18860000  1.0
