# generated using pymatgen
data_Fr0.25Rb1.75Li2H52C48S4O8
_symmetry_space_group_name_H-M  'P 1 21/a 1'
_cell_length_a   10.78700000
_cell_length_b   10.39550000
_cell_length_c   10.88800000
_cell_angle_alpha   90.00000000
_cell_angle_beta   108.92800000
_cell_angle_gamma   90.00000000
_symmetry_Int_Tables_number   14
_chemical_formula_structural   Fr0.25Rb1.75Li2H52C48S4O8
_chemical_formula_sum   'Fr0.25 Rb1.75 Li2 H52 C48 S4 O8'
_cell_volume   1154.91965539
_cell_formula_units_Z   1
loop_
 _symmetry_equiv_pos_site_id
 _symmetry_equiv_pos_as_xyz
  1  'x, y, z'
  2  '-x, -y, -z'
  3  '-x+1/2, y+1/2, -z'
  4  'x+1/2, -y+1/2, z'
loop_
 _atom_site_type_symbol
 _atom_site_label
 _atom_site_symmetry_multiplicity
 _atom_site_fract_x
 _atom_site_fract_y
 _atom_site_fract_z
 _atom_site_occupancy
  Fr+  Fr0  4  0.08460000  0.39680000  0.65860000  0.0625
  Rb+  Rb1  4  0.08460000  0.39680000  0.65860000  0.4375
  Li+  Li2  4  0.08460000  0.39680000  0.65860000  0.5
  H  H3  4  0.01050000  0.24610000  0.77510000  1.0
  H  H4  4  0.07810000  0.92470000  0.04900000  1.0
  H  H5  4  0.12290000  0.99910000  0.74940000  1.0
  H  H6  4  0.12580000  0.47990000  0.28020000  1.0
  H  H7  4  0.13620000  0.01170000  0.51710000  1.0
  H  H8  4  0.14130000  0.18600000  0.98050000  1.0
  H  H9  4  0.16000000  0.80520000  0.44860000  1.0
  H  H10  4  0.20370000  0.28940000  0.44290000  1.0
  H  H11  4  0.21130000  0.60540000  0.30590000  1.0
  H  H12  4  0.21170000  0.98730000  0.25250000  1.0
  H  H13  4  0.21400000  0.27930000  0.19760000  1.0
  H  H14  4  0.22530000  0.50430000  0.50070000  1.0
  H  H15  4  0.24510000  0.48540000  0.13520000  1.0
  C  C16  4  0.09320000  0.28220000  0.81100000  1.0
  C  C17  4  0.13760000  0.37260000  0.74120000  1.0
  C  C18  4  0.14350000  0.76990000  0.62610000  1.0
  C  C19  4  0.16120000  0.88910000  0.08420000  1.0
  C  C20  4  0.17130000  0.24590000  0.93320000  1.0
  C  C21  4  0.19760000  0.81510000  0.76560000  1.0
  C  C22  4  0.20540000  0.79940000  0.01510000  1.0
  C  C23  4  0.20970000  0.82680000  0.53760000  1.0
  C  C24  4  0.20970000  0.96100000  0.77540000  1.0
  C  C25  4  0.21500000  0.51220000  0.31120000  1.0
  C  C26  4  0.22240000  0.97290000  0.55070000  1.0
  C  C27  4  0.24080000  0.92600000  0.20610000  1.0
  S  S28  4  0.09870000  0.75005000  0.85797000  1.0
  O  O29  4  0.02090000  0.16720000  0.17110000  1.0
  O  O30  4  0.05510000  0.69420000  0.59080000  1.0
