# generated using pymatgen
data_Cs3K0.5Ba0.5Li0.5Mg2Be1.5Sb4Te1.5Se8.5S1.5Lv0.5
_symmetry_space_group_name_H-M  'P 1 21/c 1'
_cell_length_a   6.29100000
_cell_length_b   14.80000000
_cell_length_c   8.07200000
_cell_angle_alpha   90.00000000
_cell_angle_beta   105.48400000
_cell_angle_gamma   90.00000000
_symmetry_Int_Tables_number   14
_chemical_formula_structural
Cs3K0.5Ba0.5Li0.5Mg2Be1.5Sb4Te1.5Se8.5S1.5Lv0.5
_chemical_formula_sum
'Cs3 K0.5 Ba0.5 Li0.5 Mg2 Be1.5 Sb4 Te1.5 Se8.5 S1.5 Lv0.5'
_cell_volume   724.28032081
_cell_formula_units_Z   1
loop_
 _symmetry_equiv_pos_site_id
 _symmetry_equiv_pos_as_xyz
  1  'x, y, z'
  2  '-x, -y, -z'
  3  '-x, y+1/2, -z+1/2'
  4  'x, -y+1/2, z+1/2'
loop_
 _atom_site_type_symbol
 _atom_site_label
 _atom_site_symmetry_multiplicity
 _atom_site_fract_x
 _atom_site_fract_y
 _atom_site_fract_z
 _atom_site_occupancy
  K+  K0  4  0.25610000  0.71460000  0.92500000  0.125
  Cs+  Cs1  4  0.25610000  0.71460000  0.92500000  0.75
  Li+  Li2  4  0.25610000  0.71460000  0.92500000  0.125
  Be+  Be3  4  0.17340000  0.08058000  0.27775000  0.375
  Mg+  Mg4  4  0.17340000  0.08058000  0.27775000  0.5
  Ba+  Ba5  4  0.17340000  0.08058000  0.27775000  0.125
  Sb  Sb6  4  0.37568000  0.09686000  0.83897000  1.0
  Se  Se7  4  0.25841000  0.21891000  0.60915000  1.0
  Te+  Te8  4  0.20475000  0.61795000  0.60648000  0.375
  S+  S9  4  0.20475000  0.61795000  0.60648000  0.375
  Se+  Se10  4  0.20475000  0.61795000  0.60648000  0.125
  Lv+  Lv11  4  0.20475000  0.61795000  0.60648000  0.125
  Se  Se12  4  0.30223000  0.54367000  0.14321000  1.0
