# generated using pymatgen
data_Cs2.5Sn1H33.5Pb1.5C44.5Fl1N8Cl8O8
_symmetry_space_group_name_H-M  'P 1 21/c 1'
_cell_length_a   3.94690000
_cell_length_b   27.03010000
_cell_length_c   10.90650000
_cell_angle_alpha   90.00000000
_cell_angle_beta   98.54400000
_cell_angle_gamma   90.00000000
_symmetry_Int_Tables_number   14
_chemical_formula_structural   Cs2.5Sn1H33.5Pb1.5C44.5Fl1N8Cl8O8
_chemical_formula_sum   'Cs2.5 Sn1 H33.5 Pb1.5 C44.5 Fl1 N8 Cl8 O8'
_cell_volume   1150.64793337
_cell_formula_units_Z   1
loop_
 _symmetry_equiv_pos_site_id
 _symmetry_equiv_pos_as_xyz
  1  'x, y, z'
  2  '-x, -y, -z'
  3  '-x, y+1/2, -z+1/2'
  4  'x, -y+1/2, z+1/2'
loop_
 _atom_site_type_symbol
 _atom_site_label
 _atom_site_symmetry_multiplicity
 _atom_site_fract_x
 _atom_site_fract_y
 _atom_site_fract_z
 _atom_site_occupancy
  Cs+  Cs0  4  0.41480000  0.73510000  0.91670000  0.625
  H+  H1  4  0.41480000  0.73510000  0.91670000  0.375
  H  H2  4  0.00240000  0.71850000  0.27990000  1.0
  H  H3  4  0.03240000  0.08760000  0.85380000  1.0
  H  H4  4  0.03380000  0.67260000  0.36850000  1.0
  H  H5  4  0.20260000  0.01330000  0.89140000  1.0
  H  H6  4  0.29530000  0.24760000  0.97790000  1.0
  H  H7  4  0.30100000  0.18070000  0.22620000  1.0
  H  H8  4  0.35000000  0.52300000  0.91500000  1.0
  H  H9  4  0.41780000  0.71630000  0.05280000  1.0
  C  C10  4  0.00160000  0.02578000  0.25350000  1.0
  C  C11  4  0.01430000  0.60706000  0.19600000  1.0
  C  C12  4  0.05240000  0.56503000  0.70750000  1.0
  C  C13  4  0.05600000  0.18430000  0.21290000  1.0
  C  C14  4  0.06040000  0.01743000  0.81610000  1.0
  C  C15  4  0.12920000  0.57350000  0.28440000  1.0
  C  C16  4  0.27100000  0.58570000  0.80650000  1.0
  C  C17  4  0.37820000  0.09536000  0.51570000  1.0
  C  C18  4  0.38100000  0.63631000  0.81680000  1.0
  C  C19  4  0.41160000  0.14271000  0.57550000  1.0
  Sn+  Sn20  4  0.19280000  0.07987000  0.40070000  0.25
  C+  C21  4  0.19280000  0.07987000  0.40070000  0.125
  Pb+  Pb22  4  0.19280000  0.07987000  0.40070000  0.375
  Fl+  Fl23  4  0.19280000  0.07987000  0.40070000  0.25
  C  C24  4  0.44200000  0.22530000  0.50840000  1.0
  N  N25  4  0.19030000  0.03150000  0.36710000  1.0
  N  N26  4  0.42900000  0.56204000  0.91070000  1.0
  Cl  Cl27  4  0.26190000  0.67989000  0.70283000  1.0
  Cl  Cl28  4  0.38770000  0.58562000  0.42327000  1.0
  O  O29  4  0.08650000  0.65612000  0.19660000  1.0
  O  O30  4  0.23850000  0.18423000  0.53300000  1.0
