# generated using pymatgen
data_Cs0.5K2.5Rb0.5Zn0.5H0.5Cn1Cd0.5I4.5Ts2.0Br1.5
_symmetry_space_group_name_H-M  'P 3 1 c'
_cell_length_a   11.67000000
_cell_length_b   11.67000000
_cell_length_c   7.48000000
_cell_angle_alpha   90.00000000
_cell_angle_beta   90.00000000
_cell_angle_gamma   120.00000000
_symmetry_Int_Tables_number   159
_chemical_formula_structural
Cs0.5K2.5Rb0.5Zn0.5H0.5Cn1Cd0.5I4.5Ts2.0Br1.5
_chemical_formula_sum
'Cs0.5 K2.5 Rb0.5 Zn0.5 H0.5 Cn1 Cd0.5 I4.5 Ts2.0 Br1.5'
_cell_volume   882.21399241
_cell_formula_units_Z   1
loop_
 _symmetry_equiv_pos_site_id
 _symmetry_equiv_pos_as_xyz
  1  'x, y, z'
  2  '-y, x-y, z'
  3  '-x+y, -x, z'
  4  'y, x, z+1/2'
  5  'x-y, -y, z+1/2'
  6  '-x, -x+y, z+1/2'
loop_
 _atom_type_symbol
 _atom_type_oxidation_number
  Cs0+  0.0
  K0+  0.0
  Rb0+  0.0
  Zn0+  0.0
  Cd0+  0.0
  H0+  0.0
  I0+  0.0
  Br0+  0.0
  Cn0+  0.0
  Ts0+  0.0
loop_
 _atom_site_type_symbol
 _atom_site_label
 _atom_site_symmetry_multiplicity
 _atom_site_fract_x
 _atom_site_fract_y
 _atom_site_fract_z
 _atom_site_occupancy
  K0+  K0  2  0.00000000  0.00000000  0.02500000  1.0
  Cs0+  Cs1  2  0.00000000  0.00000000  0.26000000  0.25
  Rb0+  Rb2  2  0.00000000  0.00000000  0.26000000  0.25
  K0+  K3  2  0.00000000  0.00000000  0.26000000  0.25
  H0+  H4  2  0.00000000  0.00000000  0.26000000  0.25
  Cn0+  Cn5  2  0.33333333  0.66666667  0.00000000  0.5
  Cd0+  Cd6  2  0.33333333  0.66666667  0.00000000  0.25
  Zn0+  Zn7  2  0.33333333  0.66666667  0.00000000  0.25
  I0+  I8  2  0.33333333  0.66666667  0.50000000  1.0
  I0+  I9  6  0.13300000  0.70000000  0.01600000  0.4166666666666667
  Ts0+  Ts10  6  0.13300000  0.70000000  0.01600000
  0.3333333333333333
  Br0+  Br11  6  0.13300000  0.70000000  0.01600000  0.25
