# generated using pymatgen
data_Re12Se24O1.33333333Lv2Te0.66666667Br28
_symmetry_space_group_name_H-M  'P 3 1 c'
_cell_length_a   9.47600000
_cell_length_b   9.47600000
_cell_length_c   23.79599000
_cell_angle_alpha   90.00000000
_cell_angle_beta   90.00000000
_cell_angle_gamma   120.00000000
_symmetry_Int_Tables_number   159
_chemical_formula_structural   Re12Se24O1.33333333Lv2Te0.66666667Br28
_chemical_formula_sum   'Re12 Se24 O1.33333333 Lv2 Te0.66666667 Br28'
_cell_volume   1850.48050255
_cell_formula_units_Z   1
loop_
 _symmetry_equiv_pos_site_id
 _symmetry_equiv_pos_as_xyz
  1  'x, y, z'
  2  '-y, x-y, z'
  3  '-x+y, -x, z'
  4  'y, x, z+1/2'
  5  'x-y, -y, z+1/2'
  6  '-x, -x+y, z+1/2'
loop_
 _atom_type_symbol
 _atom_type_oxidation_number
  Re5+  5.0
  Te+  1.0
  Se1.14-  -1.14
  Se+  1.0
  Br-  -1.0
  O+  1.0
  Lv+  1.0
loop_
 _atom_site_type_symbol
 _atom_site_label
 _atom_site_symmetry_multiplicity
 _atom_site_fract_x
 _atom_site_fract_y
 _atom_site_fract_z
 _atom_site_occupancy
  Re5+  Re0  6  0.02960000  0.85000000  0.92105000  1.0
  Re5+  Re1  6  0.15220000  0.51680000  0.15953000  1.0
  Se1.14-  Se2  6  0.03680000  0.21830000  0.34699000  1.0
  Se1.14-  Se3  6  0.05490000  0.72490000  0.14655000  1.0
  Se1.14-  Se4  6  0.05550000  0.33540000  0.43430000  1.0
  Se1.14-  Se5  2  0.00000000  0.00000000  0.00020000  1.0
  O+  O6  2  0.33333333  0.66670000  0.07990000  0.5
  Lv+  Lv7  2  0.33333333  0.66670000  0.07990000  0.5
  Se+  Se8  6  0.15290000  0.70460000  0.23374000
  0.6666666666666666
  Te+  Te9  6  0.15290000  0.70460000  0.23374000
  0.1111111111111111
  O+  O10  6  0.15290000  0.70460000  0.23374000
  0.05555555555555555
  Lv+  Lv11  6  0.15290000  0.70460000  0.23374000
  0.16666666666666666
  Br-  Br12  6  0.04120000  0.67650000  0.00140000  1.0
  Br-  Br13  6  0.04400000  0.38560000  0.58130000  1.0
  Br-  Br14  6  0.09130000  0.65440000  0.86540000  1.0
  Br-  Br15  6  0.10230000  0.42570000  0.71784000  1.0
  Br-  Br16  2  0.00000000  0.00000000  0.25300000  1.0
  Br-  Br17  2  0.33333333  0.66670000  0.32740000  1.0
