# generated using pymatgen
data_Fr0.16666667Cs0.16666667Rb0.5H21.16666667C22N2O4
_symmetry_space_group_name_H-M  'P 1 21/m 1'
_cell_length_a   6.41700000
_cell_length_b   7.05360000
_cell_length_c   10.79100000
_cell_angle_alpha   90.00000000
_cell_angle_beta   93.61800000
_cell_angle_gamma   90.00000000
_symmetry_Int_Tables_number   11
_chemical_formula_structural
Fr0.16666667Cs0.16666667Rb0.5H21.16666667C22N2O4
_chemical_formula_sum
'Fr0.16666667 Cs0.16666667 Rb0.5 H21.16666667 C22 N2 O4'
_cell_volume   487.45903744
_cell_formula_units_Z   1
loop_
 _symmetry_equiv_pos_site_id
 _symmetry_equiv_pos_as_xyz
  1  'x, y, z'
  2  '-x, -y, -z'
  3  '-x, y+1/2, -z'
  4  'x, -y+1/2, z'
loop_
 _atom_site_type_symbol
 _atom_site_label
 _atom_site_symmetry_multiplicity
 _atom_site_fract_x
 _atom_site_fract_y
 _atom_site_fract_z
 _atom_site_occupancy
  H+  H0  2  0.06220000  0.75000000  0.32940000  0.5833333333333334
  Cs+  Cs1  2  0.06220000  0.75000000  0.32940000
  0.08333333333333333
  Fr+  Fr2  2  0.06220000  0.75000000  0.32940000
  0.08333333333333333
  Rb+  Rb3  2  0.06220000  0.75000000  0.32940000  0.25
  H  H4  4  0.25490000  0.53950000  0.16280000  1.0
  H  H5  4  0.39930000  0.06570000  0.07320000  1.0
  H  H6  4  0.45150000  0.07170000  0.21710000  1.0
  H  H7  2  0.15660000  0.75000000  0.53800000  1.0
  H  H8  2  0.28240000  0.25000000  0.73960000  1.0
  H  H9  2  0.44180000  0.25000000  0.38900000  1.0
  H  H10  2  0.46720000  0.75000000  0.40140000  1.0
  C  C11  4  0.34090000  0.07010000  0.15290000  1.0
  C  C12  2  0.01590000  0.75000000  0.51150000  1.0
  C  C13  2  0.04070000  0.25000000  0.61370000  1.0
  C  C14  2  0.04410000  0.25000000  0.05580000  1.0
  C  C15  2  0.07040000  0.25000000  0.26830000  1.0
  C  C16  2  0.13290000  0.25000000  0.40200000  1.0
  C  C17  2  0.20800000  0.25000000  0.16190000  1.0
  C  C18  2  0.24480000  0.25000000  0.65500000  1.0
  C  C19  2  0.33770000  0.25000000  0.44520000  1.0
  C  C20  2  0.39240000  0.25000000  0.57120000  1.0
  N  N21  2  0.12510000  0.75000000  0.76510000  1.0
  O  O22  2  0.06270000  0.25000000  0.94620000  1.0
  O  O23  2  0.14770000  0.75000000  0.89890000  1.0
