# generated using pymatgen
data_CsRbNaLiSiSnP2H36Fl3GePbC23S6N8(OF)6
_symmetry_space_group_name_H-M  'P 1 21/m 1'
_cell_length_a   6.58550000
_cell_length_b   12.53080000
_cell_length_c   12.46980000
_cell_angle_alpha   90.00000000
_cell_angle_beta   91.56800000
_cell_angle_gamma   90.00000000
_symmetry_Int_Tables_number   11
_chemical_formula_structural   CsRbNaLiSiSnP2H36Fl3GePbC23S6N8(OF)6
_chemical_formula_sum
'Cs1 Rb1 Na1 Li1 Si1 Sn1 P2 H36 Fl3 Ge1 Pb1 C23 S6 N8 O6 F6'
_cell_volume   1028.64232490
_cell_formula_units_Z   1
loop_
 _symmetry_equiv_pos_site_id
 _symmetry_equiv_pos_as_xyz
  1  'x, y, z'
  2  '-x, -y, -z'
  3  '-x, y+1/2, -z'
  4  'x, -y+1/2, z'
loop_
 _atom_site_type_symbol
 _atom_site_label
 _atom_site_symmetry_multiplicity
 _atom_site_fract_x
 _atom_site_fract_y
 _atom_site_fract_z
 _atom_site_occupancy
  Na+  Na0  4  0.27730000  0.63830000  0.39210000  0.25
  Rb+  Rb1  4  0.27730000  0.63830000  0.39210000  0.25
  Cs+  Cs2  4  0.27730000  0.63830000  0.39210000  0.25
  Li+  Li3  4  0.27730000  0.63830000  0.39210000  0.25
  P  P4  2  0.48697000  0.25000000  0.45344000  1.0
  H  H5  4  0.02040000  0.52390000  0.83110000  1.0
  H  H6  4  0.05190000  0.63040000  0.76280000  1.0
  H  H7  4  0.06700000  0.01320000  0.64610000  1.0
  H  H8  4  0.10530000  0.62960000  0.88870000  1.0
  H  H9  4  0.14150000  0.12840000  0.51100000  1.0
  H  H10  4  0.33740000  0.52270000  0.25520000  1.0
  H  H11  4  0.41530000  0.62460000  0.93740000  1.0
  H  H12  4  0.43080000  0.13510000  0.15910000  1.0
  H  H13  4  0.45150000  0.02400000  0.09700000  1.0
  Si+  Si14  4  0.35420000  0.00593000  0.71668000  0.25
  Fl+  Fl15  4  0.35420000  0.00593000  0.71668000  0.5
  Sn+  Sn16  4  0.35420000  0.00593000  0.71668000  0.25
  C  C17  4  0.10560000  0.58731000  0.82266000  1.0
  C  C18  4  0.24700000  0.10662000  0.55972000  1.0
  C  C19  4  0.41140000  0.61232000  0.38333000  1.0
  C  C20  4  0.44690000  0.54458000  0.30130000  1.0
  C+  C21  4  0.20190000  0.03895000  0.64036000  0.25
  Pb+  Pb22  4  0.20190000  0.03895000  0.64036000  0.25
  Ge+  Ge23  4  0.20190000  0.03895000  0.64036000  0.25
  Fl+  Fl24  4  0.20190000  0.03895000  0.64036000  0.25
  C  C25  4  0.47500000  0.58724000  0.87681000  1.0
  C  C26  2  0.16810000  0.25000000  0.91780000  1.0
  S  S27  2  0.09108000  0.75000000  0.13753000  1.0
  S  S28  2  0.22724000  0.75000000  0.57735000  1.0
  S  S29  2  0.27385000  0.25000000  0.34414000  1.0
  N  N30  4  0.31330000  0.55446000  0.80079000  1.0
  N  N31  4  0.43870000  0.14461000  0.54608000  1.0
  O  O32  4  0.17470000  0.65379000  0.09469000  1.0
  O  O33  2  0.06690000  0.75000000  0.25054000  1.0
  F  F34  4  0.26790000  0.16444000  0.89084000  1.0
  F  F35  2  0.16960000  0.25000000  0.02539000  1.0
