# generated using pymatgen
data_Cs2.75Rb0.25P2H33C18I2N4
_symmetry_space_group_name_H-M  'P 1 21/m 1'
_cell_length_a   9.24500000
_cell_length_b   7.49650000
_cell_length_c   10.44420000
_cell_angle_alpha   90.00000000
_cell_angle_beta   115.06900000
_cell_angle_gamma   90.00000000
_symmetry_Int_Tables_number   11
_chemical_formula_structural   Cs2.75Rb0.25P2H33C18I2N4
_chemical_formula_sum   'Cs2.75 Rb0.25 P2 H33 C18 I2 N4'
_cell_volume   655.65002856
_cell_formula_units_Z   1
loop_
 _symmetry_equiv_pos_site_id
 _symmetry_equiv_pos_as_xyz
  1  'x, y, z'
  2  '-x, -y, -z'
  3  '-x, y+1/2, -z'
  4  'x, -y+1/2, z'
loop_
 _atom_site_type_symbol
 _atom_site_label
 _atom_site_symmetry_multiplicity
 _atom_site_fract_x
 _atom_site_fract_y
 _atom_site_fract_z
 _atom_site_occupancy
  Rb+  Rb0  4  0.46730000  0.07560000  0.12860000  0.0625
  H+  H1  4  0.46730000  0.07560000  0.12860000  0.25
  Cs+  Cs2  4  0.46730000  0.07560000  0.12860000  0.6875
  P  P3  2  0.03094000  0.75000000  0.82083000  1.0
  H  H4  4  0.03100000  0.61900000  0.90200000  1.0
  H  H5  4  0.15790000  0.08170000  0.67370000  1.0
  H  H6  4  0.17890000  0.52310000  0.54920000  1.0
  H  H7  4  0.29910000  0.52340000  0.08130000  1.0
  H  H8  4  0.32850000  0.07600000  0.66880000  1.0
  H  H9  4  0.33940000  0.08140000  0.96680000  1.0
  H  H10  2  0.05370000  0.25000000  0.46250000  1.0
  H  H11  2  0.16470000  0.25000000  0.03180000  1.0
  H  H12  2  0.45000000  0.75000000  0.64160000  1.0
  H  H13  2  0.49430000  0.25000000  0.57080000  1.0
  C  C14  4  0.21285000  0.08120000  0.61151000  1.0
  C  C15  4  0.35330000  0.08090000  0.06521000  1.0
  C  C16  2  0.17140000  0.25000000  0.52291000  1.0
  C  C17  2  0.18453000  0.25000000  0.28610000  1.0
  C  C18  2  0.28170000  0.25000000  0.09457000  1.0
  C  C19  2  0.41727000  0.25000000  0.47513000  1.0
  C  C20  2  0.44770000  0.25000000  0.35928000  1.0
  I  I21  2  0.13990000  0.75000000  0.26447000  1.0
  N  N22  2  0.25420000  0.25000000  0.42851000  1.0
  N  N23  2  0.30226000  0.25000000  0.24278000  1.0
