# generated using pymatgen
data_Ta28.5Nb1.5
_symmetry_space_group_name_H-M  'P -4 21 m'
_cell_length_a   10.21100000
_cell_length_b   10.21100000
_cell_length_c   5.30640000
_cell_angle_alpha   90.00000000
_cell_angle_beta   90.00000000
_cell_angle_gamma   90.00000000
_symmetry_Int_Tables_number   113
_chemical_formula_structural   Ta28.5Nb1.5
_chemical_formula_sum   'Ta28.5 Nb1.5'
_cell_volume   553.26925423
_cell_formula_units_Z   1
loop_
 _symmetry_equiv_pos_site_id
 _symmetry_equiv_pos_as_xyz
  1  'x, y, z'
  2  'y, -x, -z'
  3  '-x, -y, z'
  4  '-y, x, -z'
  5  'x+1/2, -y+1/2, -z'
  6  'y+1/2, x+1/2, z'
  7  '-x+1/2, y+1/2, -z'
  8  '-y+1/2, -x+1/2, z'
loop_
 _atom_site_type_symbol
 _atom_site_label
 _atom_site_symmetry_multiplicity
 _atom_site_fract_x
 _atom_site_fract_y
 _atom_site_fract_z
 _atom_site_occupancy
  Ta  Ta0  8  0.03430000  0.12670000  0.25500000  1.0
  Ta  Ta1  8  0.06770000  0.24020000  0.76500000  1.0
  Ta  Ta2  4  0.10330000  0.39670000  0.23500000  1.0
  Ta  Ta3  4  0.18580000  0.68580000  0.00300000  1.0
  Ta  Ta4  2  0.00000000  0.50000000  0.77200000  1.0
  Nb+  Nb5  4  0.18040000  0.68040000  0.49100000  0.375
  Ta+  Ta6  4  0.18040000  0.68040000  0.49100000  0.625
