# generated using pymatgen
data_Cn1.5Fr0.5Cs0.5Zn0.5Cd0.5Hg0.5Sb0.5P5.5H11C24N6F18
_symmetry_space_group_name_H-M  'P 64'
_cell_length_a   8.80270000
_cell_length_b   8.80270000
_cell_length_c   12.78930000
_cell_angle_alpha   90.00000000
_cell_angle_beta   90.00000000
_cell_angle_gamma   120.00000000
_symmetry_Int_Tables_number   172
_chemical_formula_structural
Cn1.5Fr0.5Cs0.5Zn0.5Cd0.5Hg0.5Sb0.5P5.5H11C24N6F18
_chemical_formula_sum
'Cn1.5 Fr0.5 Cs0.5 Zn0.5 Cd0.5 Hg0.5 Sb0.5 P5.5 H11 C24 N6 F18'
_cell_volume   858.24090301
_cell_formula_units_Z   1
loop_
 _symmetry_equiv_pos_site_id
 _symmetry_equiv_pos_as_xyz
  1  'x, y, z'
  2  'x-y, x, z+2/3'
  3  '-y, x-y, z+1/3'
  4  '-x, -y, z'
  5  '-x+y, -x, z+2/3'
  6  'y, -x+y, z+1/3'
loop_
 _atom_site_type_symbol
 _atom_site_label
 _atom_site_symmetry_multiplicity
 _atom_site_fract_x
 _atom_site_fract_y
 _atom_site_fract_z
 _atom_site_occupancy
  Cn+  Cn0  3  0.00000000  0.50000000  0.50258333  0.5
  Zn+  Zn1  3  0.00000000  0.50000000  0.50258333
  0.16666666666666666
  Cd+  Cd2  3  0.00000000  0.50000000  0.50258333
  0.16666666666666666
  Hg+  Hg3  3  0.00000000  0.50000000  0.50258333
  0.16666666666666666
  H+  H4  6  0.04720000  0.17610000  0.55603333  0.8333333333333334
  Cs+  Cs5  6  0.04720000  0.17610000  0.55603333
  0.08333333333333333
  Fr+  Fr6  6  0.04720000  0.17610000  0.55603333
  0.08333333333333333
  P+  P7  6  0.13250000  0.42760000  0.60120333  0.9166666666666666
  Sb+  Sb8  6  0.13250000  0.42760000  0.60120333
  0.08333333333333333
  H  H9  6  0.07540000  0.25330000  0.36910000  1.0
  C  C10  6  0.03840000  0.77130000  0.34870000  1.0
  C  C11  6  0.12120000  0.26650000  0.60313333  1.0
  C  C12  6  0.24470000  0.51990000  0.67843333  1.0
  C  C13  6  0.28590000  0.70200000  0.70813333  1.0
  N  N14  6  0.12210000  0.69340000  0.39650000  1.0
  F  F15  6  0.18500000  0.70180000  0.78873333  1.0
  F  F16  6  0.19710000  0.65210000  0.07216667  1.0
  F  F17  6  0.21530000  0.47400000  0.96056667  1.0
