# generated using pymatgen
data_Na2Cu4Te1.33333333S2.66666667O20
_symmetry_space_group_name_H-M  'C 1 2/m 1'
_cell_length_a   8.80900000
_cell_length_b   6.18700000
_cell_length_c   7.50900000
_cell_angle_alpha   90.00000000
_cell_angle_beta   118.74000000
_cell_angle_gamma   90.00000000
_symmetry_Int_Tables_number   12
_chemical_formula_structural   Na2Cu4Te1.33333333S2.66666667O20
_chemical_formula_sum   'Na2 Cu4 Te1.33333333 S2.66666667 O20'
_cell_volume   358.83489272
_cell_formula_units_Z   1
loop_
 _symmetry_equiv_pos_site_id
 _symmetry_equiv_pos_as_xyz
  1  'x, y, z'
  2  '-x, -y, -z'
  3  '-x, y, -z'
  4  'x, -y, z'
  5  'x+1/2, y+1/2, z'
  6  '-x+1/2, -y+1/2, -z'
  7  '-x+1/2, y+1/2, -z'
  8  'x+1/2, -y+1/2, z'
loop_
 _atom_site_type_symbol
 _atom_site_label
 _atom_site_symmetry_multiplicity
 _atom_site_fract_x
 _atom_site_fract_y
 _atom_site_fract_z
 _atom_site_occupancy
  Na  Na0  2  0.00000000  0.50000000  0.50000000  1.0
  Cu  Cu1  4  0.25000000  0.25000000  0.00000000  1.0
  Te+  Te2  4  0.09107000  0.00000000  0.30151000
  0.3333333333333333
  S+  S3  4  0.09107000  0.00000000  0.30151000  0.6666666666666666
  O  O4  8  0.02010000  0.19690000  0.75580000  1.0
  O  O5  4  0.15740000  0.50000000  0.07500000  1.0
  O  O6  4  0.19330000  0.00000000  0.19200000  1.0
  O  O7  4  0.20880000  0.00000000  0.51810000  1.0
