# generated using pymatgen
data_Mg4In0.25Ga0.25B7.5Se1.5S1.5O25
_symmetry_space_group_name_H-M  'P 42'
_cell_length_a   7.62000000
_cell_length_b   7.62000000
_cell_length_c   8.19000000
_cell_angle_alpha   90.00000000
_cell_angle_beta   90.00000000
_cell_angle_gamma   90.00000000
_symmetry_Int_Tables_number   77
_chemical_formula_structural   Mg4In0.25Ga0.25B7.5Se1.5S1.5O25
_chemical_formula_sum   'Mg4 In0.25 Ga0.25 B7.5 Se1.5 S1.5 O25'
_cell_volume   475.54743600
_cell_formula_units_Z   1
loop_
 _symmetry_equiv_pos_site_id
 _symmetry_equiv_pos_as_xyz
  1  'x, y, z'
  2  '-y, x, z+1/2'
  3  '-x, -y, z'
  4  'y, -x, z+1/2'
loop_
 _atom_site_type_symbol
 _atom_site_label
 _atom_site_symmetry_multiplicity
 _atom_site_fract_x
 _atom_site_fract_y
 _atom_site_fract_z
 _atom_site_occupancy
  Mg  Mg0  4  0.24870000  0.24870000  0.22900000  1
  B+  B1  4  0.37610000  0.61170000  0.37380000  0.875
  In+  In2  4  0.37610000  0.61170000  0.37380000  0.0625
  Ga+  Ga3  4  0.37610000  0.61170000  0.37380000  0.0625
  B  B4  4  0.10910000  0.88810000  0.08300000  1
  S+  S5  4  0.23880000  0.66480000  0.49160000  0.375
  O+  O6  4  0.23880000  0.66480000  0.49160000  0.25
  Se+  Se7  4  0.23880000  0.66480000  0.49160000  0.375
  O  O8  4  0.01760000  0.19790000  0.71830000  1
  O  O9  4  0.01760000  0.72960000  0.13870000  1
  O  O10  4  0.15980000  0.26380000  0.47090000  1
  O  O11  4  0.24500000  0.48230000  0.80280000  1
  O  O12  4  0.29130000  0.52050000  0.23000000  1
  O  O13  2  0.00000000  0.00000000  0.48410000  1
  O  O14  2  0.50000000  0.50000000  0.45120000  1
