# generated using pymatgen
data_Ho1Mt0.5Cs0.5Rb0.5K1.5Li0.5Co0.5Sn0.5H12Pb1C18.5Fl1N3O15
_symmetry_space_group_name_H-M  'P 3'
_cell_length_a   13.06010000
_cell_length_b   13.06010000
_cell_length_c   5.86370000
_cell_angle_alpha   90.00000000
_cell_angle_beta   90.00000000
_cell_angle_gamma   120.00000000
_symmetry_Int_Tables_number   143
_chemical_formula_structural
Ho1Mt0.5Cs0.5Rb0.5K1.5Li0.5Co0.5Sn0.5H12Pb1C18.5Fl1N3O15
_chemical_formula_sum
'Ho1 Mt0.5 Cs0.5 Rb0.5 K1.5 Li0.5 Co0.5 Sn0.5 H12 Pb1 C18.5 Fl1 N3 O15'
_cell_volume   866.15452589
_cell_formula_units_Z   1
loop_
 _symmetry_equiv_pos_site_id
 _symmetry_equiv_pos_as_xyz
  1  'x, y, z'
  2  '-y, x-y, z'
  3  '-x+y, -x, z'
loop_
 _atom_site_type_symbol
 _atom_site_label
 _atom_site_symmetry_multiplicity
 _atom_site_fract_x
 _atom_site_fract_y
 _atom_site_fract_z
 _atom_site_occupancy
  Ho  Ho0  1  0.00000000  0.00000000  0.10937000  1.0
  Mt+  Mt1  1  0.33333333  0.66666667  0.90106000  0.5
  Co+  Co2  1  0.33333333  0.66666667  0.90106000  0.5
  Rb+  Rb3  3  0.06280000  0.89730000  0.45270000
  0.16666666666666666
  Li+  Li4  3  0.06280000  0.89730000  0.45270000
  0.16666666666666666
  K+  K5  3  0.06280000  0.89730000  0.45270000  0.5
  Cs+  Cs6  3  0.06280000  0.89730000  0.45270000
  0.16666666666666666
  H  H7  3  0.00230000  0.80830000  0.29730000  1.0
  H  H8  3  0.02130000  0.43600000  0.33120000  1.0
  H  H9  3  0.17460000  0.60680000  0.47930000  1.0
  H  H10  3  0.28840000  0.03300000  0.51040000  1.0
  C  C11  3  0.06110000  0.43340000  0.46050000  1.0
  C  C12  3  0.08980000  0.32530000  0.76180000  1.0
  C  C13  3  0.18180000  0.43170000  0.83980000  1.0
  Pb+  Pb14  3  0.02860000  0.32570000  0.56790000
  0.3333333333333333
  C+  C15  3  0.02860000  0.32570000  0.56790000
  0.16666666666666666
  Sn+  Sn16  3  0.02860000  0.32570000  0.56790000
  0.16666666666666666
  Fl+  Fl17  3  0.02860000  0.32570000  0.56790000
  0.3333333333333333
  C  C18  3  0.05610000  0.21160000  0.88540000  1.0
  C  C19  3  0.15320000  0.53510000  0.55000000  1.0
  C  C20  3  0.18770000  0.74330000  0.05100000  1.0
  N  N21  3  0.21310000  0.53490000  0.73510000  1.0
  O  O22  3  0.00220000  0.86380000  0.36990000  1.0
  O  O23  3  0.04840000  0.89980000  0.81910000  1.0
  O  O24  3  0.11510000  0.75740000  0.15670000  1.0
  O  O25  3  0.19630000  0.01700000  0.04780000  1.0
  O  O26  3  0.21490000  0.66370000  0.08690000  1.0
