# generated using pymatgen
data_Am1.5Th0.25U0.25Po0.5Te2S0.5O0.5Lv0.5
_symmetry_space_group_name_H-M  'P 4/n m m :1'
_cell_length_a   4.01200000
_cell_length_b   4.01200000
_cell_length_c   7.50100000
_cell_angle_alpha   90.00000000
_cell_angle_beta   90.00000000
_cell_angle_gamma   90.00000000
_symmetry_Int_Tables_number   129
_chemical_formula_structural   Am1.5Th0.25U0.25Po0.5Te2S0.5O0.5Lv0.5
_chemical_formula_sum
'Am1.5 Th0.25 U0.25 Po0.5 Te2 S0.5 O0.5 Lv0.5'
_cell_volume   120.73717614
_cell_formula_units_Z   1
loop_
 _symmetry_equiv_pos_site_id
 _symmetry_equiv_pos_as_xyz
  1  'x, y, z'
  2  '-y+1/2, x+1/2, z'
  3  '-x, -y, z'
  4  'y+1/2, -x+1/2, z'
  5  'x+1/2, -y+1/2, -z'
  6  '-y, -x, -z'
  7  '-x+1/2, y+1/2, -z'
  8  'y, x, -z'
  9  '-x+1/2, -y+1/2, -z'
  10  'y, -x, -z'
  11  'x+1/2, y+1/2, -z'
  12  '-y, x, -z'
  13  '-x, y, z'
  14  'y+1/2, x+1/2, z'
  15  'x, -y, z'
  16  '-y+1/2, -x+1/2, z'
loop_
 _atom_type_symbol
 _atom_type_oxidation_number
  Am0+  0.0
  Th0+  0.0
  U0+  0.0
  Po0+  0.0
  Te0+  0.0
  S0+  0.0
  O0+  0.0
  Lv0+  0.0
loop_
 _atom_site_type_symbol
 _atom_site_label
 _atom_site_symmetry_multiplicity
 _atom_site_fract_x
 _atom_site_fract_y
 _atom_site_fract_z
 _atom_site_occupancy
  Am0+  Am0  2  0.00000000  0.50000000  0.17000000  0.75
  U0+  U1  2  0.00000000  0.50000000  0.17000000  0.125
  Th0+  Th2  2  0.00000000  0.50000000  0.17000000  0.125
  Te0+  Te3  2  0.00000000  0.50000000  0.63500000  1.0
  S0+  S4  2  0.00000000  0.00000000  0.00000000  0.25
  O0+  O5  2  0.00000000  0.00000000  0.00000000  0.25
  Lv0+  Lv6  2  0.00000000  0.00000000  0.00000000  0.25
  Po0+  Po7  2  0.00000000  0.00000000  0.00000000  0.25
