# generated using pymatgen
data_Fr0.5Rb0.5K0.5Na0.5Li1Po0.5H1Se0.5S0.5Lv0.5
_symmetry_space_group_name_H-M  'P 4/n m m :1'
_cell_length_a   4.42400000
_cell_length_b   4.42400000
_cell_length_c   7.25500000
_cell_angle_alpha   90.00000000
_cell_angle_beta   90.00000000
_cell_angle_gamma   90.00000000
_symmetry_Int_Tables_number   129
_chemical_formula_structural
Fr0.5Rb0.5K0.5Na0.5Li1Po0.5H1Se0.5S0.5Lv0.5
_chemical_formula_sum
'Fr0.5 Rb0.5 K0.5 Na0.5 Li1 Po0.5 H1 Se0.5 S0.5 Lv0.5'
_cell_volume   141.99323488
_cell_formula_units_Z   1
loop_
 _symmetry_equiv_pos_site_id
 _symmetry_equiv_pos_as_xyz
  1  'x, y, z'
  2  '-y+1/2, x+1/2, z'
  3  '-x, -y, z'
  4  'y+1/2, -x+1/2, z'
  5  'x+1/2, -y+1/2, -z'
  6  '-y, -x, -z'
  7  '-x+1/2, y+1/2, -z'
  8  'y, x, -z'
  9  '-x+1/2, -y+1/2, -z'
  10  'y, -x, -z'
  11  'x+1/2, y+1/2, -z'
  12  '-y, x, -z'
  13  '-x, y, z'
  14  'y+1/2, x+1/2, z'
  15  'x, -y, z'
  16  '-y+1/2, -x+1/2, z'
loop_
 _atom_type_symbol
 _atom_type_oxidation_number
  Fr0+  0.0
  K0+  0.0
  Rb0+  0.0
  Na0+  0.0
  Li0+  0.0
  Po0+  0.0
  H0+  0.0
  Se0+  0.0
  S0+  0.0
  Lv0+  0.0
loop_
 _atom_site_type_symbol
 _atom_site_label
 _atom_site_symmetry_multiplicity
 _atom_site_fract_x
 _atom_site_fract_y
 _atom_site_fract_z
 _atom_site_occupancy
  H0+  H0  2  0.00000000  0.50000000  0.65760000  0.25
  Li0+  Li1  2  0.00000000  0.50000000  0.65760000  0.25
  Rb0+  Rb2  2  0.00000000  0.50000000  0.65760000  0.25
  Fr0+  Fr3  2  0.00000000  0.50000000  0.65760000  0.25
  Na0+  Na4  2  0.00000000  0.00000000  0.00000000  0.25
  K0+  K5  2  0.00000000  0.00000000  0.00000000  0.25
  Li0+  Li6  2  0.00000000  0.00000000  0.00000000  0.25
  H0+  H7  2  0.00000000  0.00000000  0.00000000  0.25
  Se0+  Se8  2  0.00000000  0.50000000  0.17980000  0.25
  S0+  S9  2  0.00000000  0.50000000  0.17980000  0.25
  Lv0+  Lv10  2  0.00000000  0.50000000  0.17980000  0.25
  Po0+  Po11  2  0.00000000  0.50000000  0.17980000  0.25
