# generated using pymatgen
data_Na1Li1.5Si1Sn1Ge1H57.5C36O12
_symmetry_space_group_name_H-M  'P 31'
_cell_length_a   9.34920000
_cell_length_b   9.34920000
_cell_length_c   13.55550000
_cell_angle_alpha   90.00000000
_cell_angle_beta   90.00000000
_cell_angle_gamma   120.00000000
_symmetry_Int_Tables_number   144
_chemical_formula_structural   Na1Li1.5Si1Sn1Ge1H57.5C36O12
_chemical_formula_sum   'Na1 Li1.5 Si1 Sn1 Ge1 H57.5 C36 O12'
_cell_volume   1026.11272600
_cell_formula_units_Z   1
loop_
 _symmetry_equiv_pos_site_id
 _symmetry_equiv_pos_as_xyz
  1  'x, y, z'
  2  '-y, x-y, z+1/3'
  3  '-x+y, -x, z+2/3'
loop_
 _atom_site_type_symbol
 _atom_site_label
 _atom_site_symmetry_multiplicity
 _atom_site_fract_x
 _atom_site_fract_y
 _atom_site_fract_z
 _atom_site_occupancy
  Na+  Na0  3  0.03590000  0.60670000  0.10456667
  0.3333333333333333
  H+  H1  3  0.03590000  0.60670000  0.10456667  0.16666666666666666
  Li+  Li2  3  0.03590000  0.60670000  0.10456667  0.5
  Ge+  Ge3  3  0.06330000  0.80890000  0.78726333
  0.3333333333333333
  Sn+  Sn4  3  0.06330000  0.80890000  0.78726333
  0.3333333333333333
  Si+  Si5  3  0.06330000  0.80890000  0.78726333
  0.3333333333333333
  H  H6  3  0.00520000  0.87810000  0.22506667  1.0
  H  H7  3  0.04460000  0.59770000  0.63753333  1.0
  H  H8  3  0.07000000  0.86200000  0.72213333  1.0
  H  H9  3  0.07510000  0.06100000  0.44400000  1.0
  H  H10  3  0.15450000  0.48000000  0.01446667  1.0
  H  H11  3  0.18020000  0.14260000  0.25786667  1.0
  H  H12  3  0.19320000  0.69470000  0.17576667  1.0
  H  H13  3  0.20230000  0.43060000  0.21736667  1.0
  H  H14  3  0.20890000  0.74950000  0.06256667  1.0
  H  H15  3  0.21230000  0.55730000  0.80303333  1.0
  H  H16  3  0.26180000  0.06540000  0.88783333  1.0
  H  H17  3  0.26790000  0.56770000  0.69043333  1.0
  H  H18  3  0.33600000  0.01230000  0.31670000  1.0
  H  H19  3  0.37770000  0.06150000  0.43040000  1.0
  H  H20  3  0.40970000  0.25950000  0.08256667  1.0
  H  H21  3  0.42000000  0.37000000  0.73383333  1.0
  H  H22  3  0.43300000  0.37840000  0.17346667  1.0
  H  H23  3  0.50430000  0.17500000  0.34670000  1.0
  H  H24  3  0.54500000  0.30000000  0.59640000  1.0
  C  C25  3  0.03290000  0.95820000  0.17456667  1.0
  C  C26  3  0.04000000  0.55200000  0.70491333  1.0
  C  C27  3  0.13630000  0.11500000  0.19298667  1.0
  C  C28  3  0.14175000  0.38231000  0.15427667  1.0
  C  C29  3  0.15620000  0.65600000  0.10833667  1.0
  C  C30  3  0.20373000  0.52642000  0.08044667  1.0
  C  C31  3  0.21590000  0.60790000  0.73825333  1.0
  C  C32  3  0.33831000  0.04459000  0.84671333  1.0
  C  C33  3  0.38000000  0.34050000  0.10812667  1.0
  C  C34  3  0.38784000  0.16438000  0.76108333  1.0
  C  C35  3  0.42470000  0.06130000  0.36580000  1.0
  C  C36  3  0.48665000  0.08875000  0.91206333  1.0
  O  O37  3  0.37091000  0.29219000  0.78182333  1.0
  O  O38  3  0.44029000  0.14530000  0.68284333  1.0
  O  O39  3  0.47471000  0.00556000  0.98398333  1.0
  O  O40  3  0.60284000  0.37850000  0.55335000  1.0
