# generated using pymatgen
data_Cs2.25K0.75Te0.25H12C6N3Lv2.75O3
_symmetry_space_group_name_H-M  'P 31'
_cell_length_a   7.01670000
_cell_length_b   7.01670000
_cell_length_c   5.48940000
_cell_angle_alpha   90.00000000
_cell_angle_beta   90.00000000
_cell_angle_gamma   120.00000000
_symmetry_Int_Tables_number   144
_chemical_formula_structural   Cs2.25K0.75Te0.25H12C6N3Lv2.75O3
_chemical_formula_sum   'Cs2.25 K0.75 Te0.25 H12 C6 N3 Lv2.75 O3'
_cell_volume   234.05683437
_cell_formula_units_Z   1
loop_
 _symmetry_equiv_pos_site_id
 _symmetry_equiv_pos_as_xyz
  1  'x, y, z'
  2  '-y, x-y, z+1/3'
  3  '-x+y, -x, z+2/3'
loop_
 _atom_site_type_symbol
 _atom_site_label
 _atom_site_symmetry_multiplicity
 _atom_site_fract_x
 _atom_site_fract_y
 _atom_site_fract_z
 _atom_site_occupancy
  Cs+  Cs0  3  0.50905400  0.20079900  0.65788133  0.75
  K+  K1  3  0.50905400  0.20079900  0.65788133  0.25
  H  H2  3  0.09650900  0.40925500  0.74570067  1.0
  H  H3  3  0.15880300  0.55929400  0.95123967  1.0
  H  H4  3  0.16951500  0.77935600  0.61349133  1.0
  H  H5  3  0.26235700  0.14145500  0.63722733  1.0
  C  C6  3  0.33410000  0.06040000  0.97293333  1.0
  C  C7  3  0.35890000  0.08990000  0.69663333  1.0
  N  N8  3  0.11690000  0.42200000  0.90616667  1.0
  Lv+  Lv9  3  0.11260000  0.43430000  0.39566667
  0.9166666666666666
  Te+  Te10  3  0.11260000  0.43430000  0.39566667
  0.08333333333333333
  O  O11  3  0.33530000  0.21200000  0.09303333  1.0
