# generated using pymatgen
data_Si2Ge1.5H36Pb2C48Fl2.5N4O8
_symmetry_space_group_name_H-M  'P b c n'
_cell_length_a   5.54800000
_cell_length_b   23.80100000
_cell_length_c   8.02500000
_cell_angle_alpha   90.00000000
_cell_angle_beta   90.00000000
_cell_angle_gamma   90.00000000
_symmetry_Int_Tables_number   60
_chemical_formula_structural   Si2Ge1.5H36Pb2C48Fl2.5N4O8
_chemical_formula_sum   'Si2 Ge1.5 H36 Pb2 C48 Fl2.5 N4 O8'
_cell_volume   1059.68478270
_cell_formula_units_Z   1
loop_
 _symmetry_equiv_pos_site_id
 _symmetry_equiv_pos_as_xyz
  1  'x, y, z'
  2  '-x, -y, -z'
  3  '-x+1/2, -y+1/2, z+1/2'
  4  'x+1/2, y+1/2, -z+1/2'
  5  'x+1/2, -y+1/2, -z'
  6  '-x+1/2, y+1/2, z'
  7  '-x, y, -z+1/2'
  8  'x, -y, z+1/2'
loop_
 _atom_site_type_symbol
 _atom_site_label
 _atom_site_symmetry_multiplicity
 _atom_site_fract_x
 _atom_site_fract_y
 _atom_site_fract_z
 _atom_site_occupancy
  H  H0  8  0.14520000  0.03240000  0.09160000  1.0
  H  H1  8  0.17310000  0.38360000  0.67090000  1.0
  H  H2  8  0.18750000  0.17870000  0.87540000  1.0
  H  H3  8  0.19010000  0.72410000  0.37710000  1.0
  H  H4  4  0.00000000  0.17590000  0.25000000  1.0
  C  C5  8  0.10480000  0.41763000  0.70260000  1.0
  C  C6  8  0.10560000  0.48304000  0.20340000  1.0
  C  C7  8  0.17520000  0.42378000  0.17020000  1.0
  C  C8  8  0.18550000  0.24375000  0.32570000  1.0
  C  C9  8  0.21400000  0.46756000  0.65440000  1.0
  C  C10  4  0.00000000  0.33042000  0.25000000  1.0
  Pb+  Pb11  8  0.18680000  0.30175000  0.32530000  0.25
  Si+  Si12  8  0.18680000  0.30175000  0.32530000  0.25
  Ge+  Ge13  8  0.18680000  0.30175000  0.32530000  0.1875
  Fl+  Fl14  8  0.18680000  0.30175000  0.32530000  0.3125
  C  C15  4  0.00000000  0.21500000  0.25000000  1.0
  N  N16  4  0.00000000  0.39051000  0.25000000  1.0
  O  O17  8  0.15560000  0.90588000  0.09090000  1.0
