# generated using pymatgen
data_Re4Te0.16666667S1.16666667O6.66666667
_symmetry_space_group_name_H-M  'P b c n'
_cell_length_a   4.80940000
_cell_length_b   5.64330000
_cell_length_c   4.60070000
_cell_angle_alpha   90.00000000
_cell_angle_beta   90.00000000
_cell_angle_gamma   90.00000000
_symmetry_Int_Tables_number   60
_chemical_formula_structural   Re4Te0.16666667S1.16666667O6.66666667
_chemical_formula_sum   'Re4 Te0.16666667 S1.16666667 O6.66666667'
_cell_volume   124.86707891
_cell_formula_units_Z   1
loop_
 _symmetry_equiv_pos_site_id
 _symmetry_equiv_pos_as_xyz
  1  'x, y, z'
  2  '-x, -y, -z'
  3  '-x+1/2, -y+1/2, z+1/2'
  4  'x+1/2, y+1/2, -z+1/2'
  5  'x+1/2, -y+1/2, -z'
  6  '-x+1/2, y+1/2, z'
  7  '-x, y, -z+1/2'
  8  'x, -y, z+1/2'
loop_
 _atom_site_type_symbol
 _atom_site_label
 _atom_site_symmetry_multiplicity
 _atom_site_fract_x
 _atom_site_fract_y
 _atom_site_fract_z
 _atom_site_occupancy
  Re  Re0  4  0.00000000  0.11000000  0.25000000  1
  O+  O1  8  0.25000000  0.14000000  0.62500000  0.8333333333333334
  S+  S2  8  0.25000000  0.14000000  0.62500000  0.14583333333333334
  Te+  Te3  8  0.25000000  0.14000000  0.62500000
  0.020833333333333332
