# generated using pymatgen
data_Eu8Ge4B8O28.33333333Lv2.33333333Po1Te0.33333333
_symmetry_space_group_name_H-M  'P b c n'
_cell_length_a   13.56400000
_cell_length_b   4.43500000
_cell_length_c   9.33400000
_cell_angle_alpha   90.00000000
_cell_angle_beta   90.00000000
_cell_angle_gamma   90.00000000
_symmetry_Int_Tables_number   60
_chemical_formula_structural
Eu8Ge4B8O28.33333333Lv2.33333333Po1Te0.33333333
_chemical_formula_sum
'Eu8 Ge4 B8 O28.33333333 Lv2.33333333 Po1 Te0.33333333'
_cell_volume   561.49927756
_cell_formula_units_Z   1
loop_
 _symmetry_equiv_pos_site_id
 _symmetry_equiv_pos_as_xyz
  1  'x, y, z'
  2  '-x, -y, -z'
  3  '-x+1/2, -y+1/2, z+1/2'
  4  'x+1/2, y+1/2, -z+1/2'
  5  'x+1/2, -y+1/2, -z'
  6  '-x+1/2, y+1/2, z'
  7  '-x, y, -z+1/2'
  8  'x, -y, z+1/2'
loop_
 _atom_site_type_symbol
 _atom_site_label
 _atom_site_symmetry_multiplicity
 _atom_site_fract_x
 _atom_site_fract_y
 _atom_site_fract_z
 _atom_site_occupancy
  Eu  Eu0  8  0.14009700  0.96097000  0.97458000  1.0
  Ge  Ge1  4  0.00000000  0.42591000  0.75000000  1.0
  B  B2  8  0.19990000  0.46830000  0.20380000  1.0
  O+  O3  8  0.19240000  0.46290000  0.04950000  0.5416666666666666
  Lv+  Lv4  8  0.19240000  0.46290000  0.04950000
  0.2916666666666667
  Po+  Po5  8  0.19240000  0.46290000  0.04950000  0.125
  Te+  Te6  8  0.19240000  0.46290000  0.04950000
  0.041666666666666664
  O  O7  8  0.00404000  0.20500000  0.59860000  1.0
  O  O8  8  0.10610000  0.34410000  0.26620000  1.0
  O  O9  8  0.21630000  0.21900000  0.75950000  1.0
