# generated using pymatgen
data_Hf0.44444444Ti0.55555556Si0.33333333Sn0.33333333Pb0.33333333Lv0.33333333S0
_symmetry_space_group_name_H-M  'P 4 m m'
_cell_length_a   3.89500000
_cell_length_b   3.89500000
_cell_length_c   4.17100000
_cell_angle_alpha   90.00000000
_cell_angle_beta   90.00000000
_cell_angle_gamma   90.00000000
_symmetry_Int_Tables_number   99
_chemical_formula_structural
;
Hf0.44444444Ti0.55555556Si0.33333333Sn0.33333333Pb0.33333333Lv0.333333
33S0.66666667O2
;
_chemical_formula_sum
;
Hf0.44444444 Ti0.55555556 Si0.33333333 Sn0.33333333 Pb0.33333333
Lv0.33333333 S0.66666667 O2
;
_cell_volume   63.27834528
_cell_formula_units_Z   1
loop_
 _symmetry_equiv_pos_site_id
 _symmetry_equiv_pos_as_xyz
  1  'x, y, z'
  2  '-y, x, z'
  3  '-x, -y, z'
  4  'y, -x, z'
  5  '-x, y, z'
  6  'y, x, z'
  7  'x, -y, z'
  8  '-y, -x, z'
loop_
 _atom_site_type_symbol
 _atom_site_label
 _atom_site_symmetry_multiplicity
 _atom_site_fract_x
 _atom_site_fract_y
 _atom_site_fract_z
 _atom_site_occupancy
  Hf+  Hf0  1  0.50000000  0.50000000  0.54000000
  0.4444444444444444
  Ti+  Ti1  1  0.50000000  0.50000000  0.54000000
  0.5555555555555556
  Sn+  Sn2  1  0.00000000  0.00000000  0.00000000
  0.3333333333333333
  Pb+  Pb3  1  0.00000000  0.00000000  0.00000000
  0.3333333333333333
  Si+  Si4  1  0.00000000  0.00000000  0.00000000
  0.3333333333333333
  Lv+  Lv5  1  0.50000000  0.50000000  0.11800000
  0.3333333333333333
  S+  S6  1  0.50000000  0.50000000  0.11800000  0.6666666666666666
  O  O7  2  0.00000000  0.50000000  0.62100000  1
