# generated using pymatgen
data_Ti1Sn0.33333333Po0.16666667Te1.16666667C0.66666667Se0.33333333O1.33333333
_symmetry_space_group_name_H-M  'P 4 m m'
_cell_length_a   3.92110000
_cell_length_b   3.92110000
_cell_length_c   4.10250000
_cell_angle_alpha   90.00000000
_cell_angle_beta   90.00000000
_cell_angle_gamma   90.00000000
_symmetry_Int_Tables_number   99
_chemical_formula_structural
;
Ti1Sn0.33333333Po0.16666667Te1.16666667C0.66666667Se0.33333333O1.33333
333
;
_chemical_formula_sum
;
Ti1 Sn0.33333333 Po0.16666667 Te1.16666667 C0.66666667 Se0.33333333
O1.33333333
;
_cell_volume   63.07604092
_cell_formula_units_Z   1
loop_
 _symmetry_equiv_pos_site_id
 _symmetry_equiv_pos_as_xyz
  1  'x, y, z'
  2  '-y, x, z'
  3  '-x, -y, z'
  4  'y, -x, z'
  5  '-x, y, z'
  6  'y, x, z'
  7  'x, -y, z'
  8  '-y, -x, z'
loop_
 _atom_site_type_symbol
 _atom_site_label
 _atom_site_symmetry_multiplicity
 _atom_site_fract_x
 _atom_site_fract_y
 _atom_site_fract_z
 _atom_site_occupancy
  Ti  Ti0  1  0.50000000  0.50000000  0.53250000  1.0
  C+  C1  1  0.00000000  0.00000000  0.00000000  0.6666666666666666
  Sn+  Sn2  1  0.00000000  0.00000000  0.00000000
  0.3333333333333333
  O+  O3  2  0.00000000  0.50000000  0.59600000  0.16666666666666666
  Te+  Te4  2  0.00000000  0.50000000  0.59600000
  0.5833333333333334
  Po+  Po5  2  0.00000000  0.50000000  0.59600000
  0.08333333333333333
  Se+  Se6  2  0.00000000  0.50000000  0.59600000
  0.16666666666666666
  O  O7  1  0.50000000  0.50000000  0.09600000  1.0
