# generated using pymatgen
data_Fr2.33333333Na1Li0.66666667Cu1Si0.33333333Sn0.33333333Ge1Fl0.33333333Cl2O4
_symmetry_space_group_name_H-M  'P 4 m m'
_cell_length_a   5.88000000
_cell_length_b   5.88000000
_cell_length_c   5.50000000
_cell_angle_alpha   90.00000000
_cell_angle_beta   90.00000000
_cell_angle_gamma   90.00000000
_symmetry_Int_Tables_number   99
_chemical_formula_structural
;
Fr2.33333333Na1Li0.66666667Cu1Si0.33333333Sn0.33333333Ge1Fl0.33333333C
l2O4
;
_chemical_formula_sum
;
Fr2.33333333 Na1 Li0.66666667 Cu1 Si0.33333333 Sn0.33333333 Ge1
Fl0.33333333 Cl2 O4
;
_cell_volume   190.15920000
_cell_formula_units_Z   1
loop_
 _symmetry_equiv_pos_site_id
 _symmetry_equiv_pos_as_xyz
  1  'x, y, z'
  2  '-y, x, z'
  3  '-x, -y, z'
  4  'y, -x, z'
  5  '-x, y, z'
  6  'y, x, z'
  7  'x, -y, z'
  8  '-y, -x, z'
loop_
 _atom_site_type_symbol
 _atom_site_label
 _atom_site_symmetry_multiplicity
 _atom_site_fract_x
 _atom_site_fract_y
 _atom_site_fract_z
 _atom_site_occupancy
  Li+  Li0  4  0.29100000  0.29100000  0.12200000
  0.16666666666666666
  Na+  Na1  4  0.29100000  0.29100000  0.12200000  0.25
  Fr+  Fr2  4  0.29100000  0.29100000  0.12200000
  0.5833333333333334
  Cu  Cu3  1  0.00000000  0.00000000  0.02820000  1
  Ge+  Ge4  2  0.00000000  0.50000000  0.72980000  0.5
  Sn+  Sn5  2  0.00000000  0.50000000  0.72980000
  0.16666666666666666
  Si+  Si6  2  0.00000000  0.50000000  0.72980000
  0.16666666666666666
  Fl+  Fl7  2  0.00000000  0.50000000  0.72980000
  0.16666666666666666
  Cl  Cl8  1  0.00000000  0.00000000  0.49200000  1
  Cl  Cl9  1  0.50000000  0.50000000  0.42000000  1
  O  O10  4  0.23360000  0.23360000  0.96600000  1
