# generated using pymatgen
data_Cs4.66666667Rb3.33333333Te16O48
_symmetry_space_group_name_H-M  'F d -3 m :2'
_cell_length_a   10.32070000
_cell_length_b   10.32070000
_cell_length_c   10.32070000
_cell_angle_alpha   90.00000000
_cell_angle_beta   90.00000000
_cell_angle_gamma   90.00000000
_symmetry_Int_Tables_number   227
_chemical_formula_structural   Cs4.66666667Rb3.33333333Te16O48
_chemical_formula_sum   'Cs4.66666667 Rb3.33333333 Te16 O48'
_cell_volume   1099.32843821
_cell_formula_units_Z   1
loop_
 _symmetry_equiv_pos_site_id
 _symmetry_equiv_pos_as_xyz
  1  'x, y, z'
  2  '-y, x+1/4, z+1/4'
  3  '-x+3/4, -y+3/4, z'
  4  'y+1/4, -x, z+1/4'
  5  'x, -y+1/4, -z+1/4'
  6  '-y, -x, -z'
  7  '-x+1/4, y, -z+1/4'
  8  'y+3/4, x+3/4, -z'
  9  'z, x, y'
  10  'z+1/4, -y, x+1/4'
  11  'z, -x+1/4, -y+1/4'
  12  'z+3/4, y+3/4, -x'
  13  '-z+1/4, x, -y+1/4'
  14  '-z, -y, -x'
  15  '-z+3/4, -x+3/4, y'
  16  '-z, y+1/4, x+1/4'
  17  'y, z, x'
  18  'x+3/4, z+3/4, -y'
  19  '-y+1/4, z, -x+1/4'
  20  '-x, z+1/4, y+1/4'
  21  '-y+3/4, -z+3/4, x'
  22  '-x, -z, -y'
  23  'y, -z+1/4, -x+1/4'
  24  'x+1/4, -z, y+1/4'
  25  '-x, -y, -z'
  26  'y, -x+1/4, -z+1/4'
  27  'x+3/4, y+3/4, -z'
  28  '-y+1/4, x, -z+1/4'
  29  '-x, y+1/4, z+1/4'
  30  'y, x, z'
  31  'x+1/4, -y, z+1/4'
  32  '-y+3/4, -x+3/4, z'
  33  '-z, -x, -y'
  34  '-z+1/4, y, -x+1/4'
  35  '-z, x+1/4, y+1/4'
  36  '-z+3/4, -y+3/4, x'
  37  'z+1/4, -x, y+1/4'
  38  'z, y, x'
  39  'z+3/4, x+3/4, -y'
  40  'z, -y+1/4, -x+1/4'
  41  '-y, -z, -x'
  42  '-x+3/4, -z+3/4, y'
  43  'y+1/4, -z, x+1/4'
  44  'x, -z+1/4, -y+1/4'
  45  'y+3/4, z+3/4, -x'
  46  'x, z, y'
  47  '-y, z+1/4, x+1/4'
  48  '-x+1/4, z, -y+1/4'
  49  'x+1/2, y+1/2, z'
  50  '-y+1/2, x+3/4, z+1/4'
  51  '-x+1/4, -y+1/4, z'
  52  'y+3/4, -x+1/2, z+1/4'
  53  'x+1/2, -y+3/4, -z+1/4'
  54  '-y+1/2, -x+1/2, -z'
  55  '-x+3/4, y+1/2, -z+1/4'
  56  'y+1/4, x+1/4, -z'
  57  'z+1/2, x+1/2, y'
  58  'z+3/4, -y+1/2, x+1/4'
  59  'z+1/2, -x+3/4, -y+1/4'
  60  'z+1/4, y+1/4, -x'
  61  '-z+3/4, x+1/2, -y+1/4'
  62  '-z+1/2, -y+1/2, -x'
  63  '-z+1/4, -x+1/4, y'
  64  '-z+1/2, y+3/4, x+1/4'
  65  'y+1/2, z+1/2, x'
  66  'x+1/4, z+1/4, -y'
  67  '-y+3/4, z+1/2, -x+1/4'
  68  '-x+1/2, z+3/4, y+1/4'
  69  '-y+1/4, -z+1/4, x'
  70  '-x+1/2, -z+1/2, -y'
  71  'y+1/2, -z+3/4, -x+1/4'
  72  'x+3/4, -z+1/2, y+1/4'
  73  '-x+1/2, -y+1/2, -z'
  74  'y+1/2, -x+3/4, -z+1/4'
  75  'x+1/4, y+1/4, -z'
  76  '-y+3/4, x+1/2, -z+1/4'
  77  '-x+1/2, y+3/4, z+1/4'
  78  'y+1/2, x+1/2, z'
  79  'x+3/4, -y+1/2, z+1/4'
  80  '-y+1/4, -x+1/4, z'
  81  '-z+1/2, -x+1/2, -y'
  82  '-z+3/4, y+1/2, -x+1/4'
  83  '-z+1/2, x+3/4, y+1/4'
  84  '-z+1/4, -y+1/4, x'
  85  'z+3/4, -x+1/2, y+1/4'
  86  'z+1/2, y+1/2, x'
  87  'z+1/4, x+1/4, -y'
  88  'z+1/2, -y+3/4, -x+1/4'
  89  '-y+1/2, -z+1/2, -x'
  90  '-x+1/4, -z+1/4, y'
  91  'y+3/4, -z+1/2, x+1/4'
  92  'x+1/2, -z+3/4, -y+1/4'
  93  'y+1/4, z+1/4, -x'
  94  'x+1/2, z+1/2, y'
  95  '-y+1/2, z+3/4, x+1/4'
  96  '-x+3/4, z+1/2, -y+1/4'
  97  'x, y+1/2, z+1/2'
  98  '-y, x+3/4, z+3/4'
  99  '-x+3/4, -y+1/4, z+1/2'
  100  'y+1/4, -x+1/2, z+3/4'
  101  'x, -y+3/4, -z+3/4'
  102  '-y, -x+1/2, -z+1/2'
  103  '-x+1/4, y+1/2, -z+3/4'
  104  'y+3/4, x+1/4, -z+1/2'
  105  'z, x+1/2, y+1/2'
  106  'z+1/4, -y+1/2, x+3/4'
  107  'z, -x+3/4, -y+3/4'
  108  'z+3/4, y+1/4, -x+1/2'
  109  '-z+1/4, x+1/2, -y+3/4'
  110  '-z, -y+1/2, -x+1/2'
  111  '-z+3/4, -x+1/4, y+1/2'
  112  '-z, y+3/4, x+3/4'
  113  'y, z+1/2, x+1/2'
  114  'x+3/4, z+1/4, -y+1/2'
  115  '-y+1/4, z+1/2, -x+3/4'
  116  '-x, z+3/4, y+3/4'
  117  '-y+3/4, -z+1/4, x+1/2'
  118  '-x, -z+1/2, -y+1/2'
  119  'y, -z+3/4, -x+3/4'
  120  'x+1/4, -z+1/2, y+3/4'
  121  '-x, -y+1/2, -z+1/2'
  122  'y, -x+3/4, -z+3/4'
  123  'x+3/4, y+1/4, -z+1/2'
  124  '-y+1/4, x+1/2, -z+3/4'
  125  '-x, y+3/4, z+3/4'
  126  'y, x+1/2, z+1/2'
  127  'x+1/4, -y+1/2, z+3/4'
  128  '-y+3/4, -x+1/4, z+1/2'
  129  '-z, -x+1/2, -y+1/2'
  130  '-z+1/4, y+1/2, -x+3/4'
  131  '-z, x+3/4, y+3/4'
  132  '-z+3/4, -y+1/4, x+1/2'
  133  'z+1/4, -x+1/2, y+3/4'
  134  'z, y+1/2, x+1/2'
  135  'z+3/4, x+1/4, -y+1/2'
  136  'z, -y+3/4, -x+3/4'
  137  '-y, -z+1/2, -x+1/2'
  138  '-x+3/4, -z+1/4, y+1/2'
  139  'y+1/4, -z+1/2, x+3/4'
  140  'x, -z+3/4, -y+3/4'
  141  'y+3/4, z+1/4, -x+1/2'
  142  'x, z+1/2, y+1/2'
  143  '-y, z+3/4, x+3/4'
  144  '-x+1/4, z+1/2, -y+3/4'
  145  'x+1/2, y, z+1/2'
  146  '-y+1/2, x+1/4, z+3/4'
  147  '-x+1/4, -y+3/4, z+1/2'
  148  'y+3/4, -x, z+3/4'
  149  'x+1/2, -y+1/4, -z+3/4'
  150  '-y+1/2, -x, -z+1/2'
  151  '-x+3/4, y, -z+3/4'
  152  'y+1/4, x+3/4, -z+1/2'
  153  'z+1/2, x, y+1/2'
  154  'z+3/4, -y, x+3/4'
  155  'z+1/2, -x+1/4, -y+3/4'
  156  'z+1/4, y+3/4, -x+1/2'
  157  '-z+3/4, x, -y+3/4'
  158  '-z+1/2, -y, -x+1/2'
  159  '-z+1/4, -x+3/4, y+1/2'
  160  '-z+1/2, y+1/4, x+3/4'
  161  'y+1/2, z, x+1/2'
  162  'x+1/4, z+3/4, -y+1/2'
  163  '-y+3/4, z, -x+3/4'
  164  '-x+1/2, z+1/4, y+3/4'
  165  '-y+1/4, -z+3/4, x+1/2'
  166  '-x+1/2, -z, -y+1/2'
  167  'y+1/2, -z+1/4, -x+3/4'
  168  'x+3/4, -z, y+3/4'
  169  '-x+1/2, -y, -z+1/2'
  170  'y+1/2, -x+1/4, -z+3/4'
  171  'x+1/4, y+3/4, -z+1/2'
  172  '-y+3/4, x, -z+3/4'
  173  '-x+1/2, y+1/4, z+3/4'
  174  'y+1/2, x, z+1/2'
  175  'x+3/4, -y, z+3/4'
  176  '-y+1/4, -x+3/4, z+1/2'
  177  '-z+1/2, -x, -y+1/2'
  178  '-z+3/4, y, -x+3/4'
  179  '-z+1/2, x+1/4, y+3/4'
  180  '-z+1/4, -y+3/4, x+1/2'
  181  'z+3/4, -x, y+3/4'
  182  'z+1/2, y, x+1/2'
  183  'z+1/4, x+3/4, -y+1/2'
  184  'z+1/2, -y+1/4, -x+3/4'
  185  '-y+1/2, -z, -x+1/2'
  186  '-x+1/4, -z+3/4, y+1/2'
  187  'y+3/4, -z, x+3/4'
  188  'x+1/2, -z+1/4, -y+3/4'
  189  'y+1/4, z+3/4, -x+1/2'
  190  'x+1/2, z, y+1/2'
  191  '-y+1/2, z+1/4, x+3/4'
  192  '-x+3/4, z, -y+3/4'
loop_
 _atom_site_type_symbol
 _atom_site_label
 _atom_site_symmetry_multiplicity
 _atom_site_fract_x
 _atom_site_fract_y
 _atom_site_fract_z
 _atom_site_occupancy
  Cs+  Cs0  8  0.12500000  0.12500000  0.12500000
  0.5833333333333334
  Rb+  Rb1  8  0.12500000  0.12500000  0.12500000
  0.4166666666666667
  Te  Te2  16  0.00000000  0.00000000  0.50000000  1.0
  O  O3  48  0.07010000  0.37500000  0.87500000  1.0
