# generated using pymatgen
data_Ba1Ca1Y1Cu3Lv1Po0.33333333Te0.33333333Se1S0.33333333O4
_symmetry_space_group_name_H-M  'P m m m'
_cell_length_a   3.81310000
_cell_length_b   3.88060000
_cell_length_c   11.63290000
_cell_angle_alpha   90.00000000
_cell_angle_beta   90.00000000
_cell_angle_gamma   90.00000000
_symmetry_Int_Tables_number   47
_chemical_formula_structural
Ba1Ca1Y1Cu3Lv1Po0.33333333Te0.33333333Se1S0.33333333O4
_chemical_formula_sum
'Ba1 Ca1 Y1 Cu3 Lv1 Po0.33333333 Te0.33333333 Se1 S0.33333333 O4'
_cell_volume   172.13336909
_cell_formula_units_Z   1
loop_
 _symmetry_equiv_pos_site_id
 _symmetry_equiv_pos_as_xyz
  1  'x, y, z'
  2  '-x, -y, -z'
  3  '-x, -y, z'
  4  'x, y, -z'
  5  'x, -y, -z'
  6  '-x, y, z'
  7  '-x, y, -z'
  8  'x, -y, z'
loop_
 _atom_type_symbol
 _atom_type_oxidation_number
  Ba2+  2.0
  Ca2+  2.0
  Y3+  3.0
  Cu2.331+  2.331
  Po2-  -2.0
  Te2-  -2.0
  Se2-  -2.0
  S2-  -2.0
  O2-  -2.0
  Lv2-  -2.0
loop_
 _atom_site_type_symbol
 _atom_site_label
 _atom_site_symmetry_multiplicity
 _atom_site_fract_x
 _atom_site_fract_y
 _atom_site_fract_z
 _atom_site_occupancy
  Ba2+  Ba0  2  0.50000000  0.50000000  0.18270000  0.5
  Ca2+  Ca1  2  0.50000000  0.50000000  0.18270000  0.5
  Y3+  Y2  1  0.50000000  0.50000000  0.50000000  1.0
  Cu2.331+  Cu3  2  0.00000000  0.00000000  0.35470000  1.0
  Cu2.331+  Cu4  1  0.00000000  0.00000000  0.00000000  1.0
  Lv2-  Lv5  2  0.00000000  0.00000000  0.15900000
  0.3333333333333333
  Se2-  Se6  2  0.00000000  0.00000000  0.15900000
  0.3333333333333333
  Po2-  Po7  2  0.00000000  0.00000000  0.15900000
  0.16666666666666666
  Te2-  Te8  2  0.00000000  0.00000000  0.15900000
  0.16666666666666666
  O2-  O9  2  0.00000000  0.50000000  0.37730000  1.0
  O2-  O10  2  0.50000000  0.00000000  0.37710000  1.0
  Lv2-  Lv11  1  0.00000000  0.50000000  0.00000000
  0.3333333333333333
  Se2-  Se12  1  0.00000000  0.50000000  0.00000000
  0.3333333333333333
  S2-  S13  1  0.00000000  0.50000000  0.00000000
  0.3333333333333333
