# generated using pymatgen
data_Ra0.66666667Sr0.5Ca2.83333333Y2Cu5.5Ag0.5O13
_symmetry_space_group_name_H-M  'P m m m'
_cell_length_a   7.65500000
_cell_length_b   3.87300000
_cell_length_c   11.73500000
_cell_angle_alpha   90.00000000
_cell_angle_beta   90.00000000
_cell_angle_gamma   90.00000000
_symmetry_Int_Tables_number   47
_chemical_formula_structural
Ra0.66666667Sr0.5Ca2.83333333Y2Cu5.5Ag0.5O13
_chemical_formula_sum
'Ra0.66666667 Sr0.5 Ca2.83333333 Y2 Cu5.5 Ag0.5 O13'
_cell_volume   347.91710903
_cell_formula_units_Z   1
loop_
 _symmetry_equiv_pos_site_id
 _symmetry_equiv_pos_as_xyz
  1  'x, y, z'
  2  '-x, -y, -z'
  3  '-x, -y, z'
  4  'x, y, -z'
  5  '-x, y, -z'
  6  'x, -y, z'
  7  'x, -y, -z'
  8  '-x, y, z'
loop_
 _atom_type_symbol
 _atom_type_oxidation_number
  Ra0+  0.0
  Sr0+  0.0
  Ca0+  0.0
  Y0+  0.0
  Cu0+  0.0
  Ag0+  0.0
  O0+  0.0
loop_
 _atom_site_type_symbol
 _atom_site_label
 _atom_site_symmetry_multiplicity
 _atom_site_fract_x
 _atom_site_fract_y
 _atom_site_fract_z
 _atom_site_occupancy
  Ra0+  Ra0  4  0.24136000  0.50000000  0.18874000
  0.16666666666666666
  Sr0+  Sr1  4  0.24136000  0.50000000  0.18874000  0.125
  Ca0+  Ca2  4  0.24136000  0.50000000  0.18874000
  0.7083333333333334
  Y0+  Y3  2  0.25352000  0.50000000  0.50000000  1.0
  Cu0+  Cu4  2  0.00000000  0.00000000  0.35941000  1.0
  Cu0+  Cu5  1  0.00000000  0.00000000  0.00000000  1.0
  Cu0+  Cu6  1  0.50000000  0.00000000  0.00000000  1.0
  Cu0+  Cu7  2  0.50000000  0.00000000  0.35179000  0.75
  Ag0+  Ag8  2  0.50000000  0.00000000  0.35179000  0.25
  O0+  O9  4  0.24970000  0.00000000  0.38950000  1.0
  O0+  O10  2  0.00000000  0.00000000  0.16600000  1.0
  O0+  O11  2  0.00000000  0.50000000  0.38540000  1.0
  O0+  O12  2  0.50000000  0.00000000  0.15140000  1.0
  O0+  O13  2  0.50000000  0.50000000  0.38250000  1.0
  O0+  O14  1  0.00000000  0.50000000  0.00000000  1.0
