# generated using pymatgen
data_Eu1Db0.25Nb1V0.75Po0.25Te0.5Se0.5S1.5O3.25
_symmetry_space_group_name_H-M  'P m m m'
_cell_length_a   3.87710000
_cell_length_b   3.87710000
_cell_length_c   7.79600000
_cell_angle_alpha   90.00000000
_cell_angle_beta   90.00000000
_cell_angle_gamma   90.00000000
_symmetry_Int_Tables_number   47
_chemical_formula_structural
Eu1Db0.25Nb1V0.75Po0.25Te0.5Se0.5S1.5O3.25
_chemical_formula_sum
'Eu1 Db0.25 Nb1 V0.75 Po0.25 Te0.5 Se0.5 S1.5 O3.25'
_cell_volume   117.18872678
_cell_formula_units_Z   1
loop_
 _symmetry_equiv_pos_site_id
 _symmetry_equiv_pos_as_xyz
  1  'x, y, z'
  2  '-x, -y, -z'
  3  '-x, -y, z'
  4  'x, y, -z'
  5  'x, -y, -z'
  6  '-x, y, z'
  7  '-x, y, -z'
  8  'x, -y, z'
loop_
 _atom_type_symbol
 _atom_type_oxidation_number
  Eu0+  0.0
  Nb0+  0.0
  V0+  0.0
  Po0+  0.0
  Te0+  0.0
  Se0+  0.0
  S0+  0.0
  O0+  0.0
  Db0+  0.0
loop_
 _atom_site_type_symbol
 _atom_site_label
 _atom_site_symmetry_multiplicity
 _atom_site_fract_x
 _atom_site_fract_y
 _atom_site_fract_z
 _atom_site_occupancy
  Eu0+  Eu0  1  0.00000000  0.00000000  0.00000000  1.0
  Db0+  Db1  2  0.50000000  0.50000000  0.25950000  0.125
  Nb0+  Nb2  2  0.50000000  0.50000000  0.25950000  0.5
  V0+  V3  2  0.50000000  0.50000000  0.25950000  0.375
  Se0+  Se4  1  0.50000000  0.50000000  0.50000000  0.5
  Te0+  Te5  1  0.50000000  0.50000000  0.50000000  0.25
  S0+  S6  1  0.50000000  0.50000000  0.50000000  0.25
  S0+  S7  2  0.00000000  0.50000000  0.22100000  0.625
  Te0+  Te8  2  0.00000000  0.50000000  0.22100000  0.125
  Po0+  Po9  2  0.00000000  0.50000000  0.22100000  0.125
  O0+  O10  2  0.00000000  0.50000000  0.22100000  0.125
  O0+  O11  2  0.50000000  0.00000000  0.22400000  1.0
  O0+  O12  1  0.50000000  0.50000000  0.00000000  1.0
