# generated using pymatgen
data_Dy16Ni53(Sn8Pt)3
_symmetry_space_group_name_H-M  'C m c a'
_cell_length_a   8.59640000
_cell_length_b   23.64150000
_cell_length_c   7.53830000
_cell_angle_alpha   90.00000000
_cell_angle_beta   90.00000000
_cell_angle_gamma   90.00000000
_symmetry_Int_Tables_number   64
_chemical_formula_structural   Dy16Ni53(Sn8Pt)3
_chemical_formula_sum   'Dy16 Ni53 Sn24 Pt3'
_cell_volume   1532.02220708
_cell_formula_units_Z   1
loop_
 _symmetry_equiv_pos_site_id
 _symmetry_equiv_pos_as_xyz
  1  'x, y, z'
  2  '-x, -y, -z'
  3  '-x+1/2, -y, z+1/2'
  4  'x+1/2, y, -z+1/2'
  5  'x, -y, -z'
  6  '-x, y, z'
  7  '-x+1/2, y, -z+1/2'
  8  'x+1/2, -y, z+1/2'
  9  'x+1/2, y+1/2, z'
  10  '-x+1/2, -y+1/2, -z'
  11  '-x, -y+1/2, z+1/2'
  12  'x, y+1/2, -z+1/2'
  13  'x+1/2, -y+1/2, -z'
  14  '-x+1/2, y+1/2, z'
  15  '-x, y+1/2, -z+1/2'
  16  'x, -y+1/2, z+1/2'
loop_
 _atom_site_type_symbol
 _atom_site_label
 _atom_site_symmetry_multiplicity
 _atom_site_fract_x
 _atom_site_fract_y
 _atom_site_fract_z
 _atom_site_occupancy
  Dy  Dy0  8  0.00000000  0.19380000  0.42638000  1.0
  Dy  Dy1  8  0.20681000  0.00000000  0.00000000  1.0
  Ni  Ni2  16  0.15159000  0.19856000  0.07809000  1.0
  Ni  Ni3  16  0.23855000  0.11598000  0.59232000  1.0
  Ni  Ni4  8  0.00000000  0.10151000  0.05670000  1.0
  Ni  Ni5  8  0.00000000  0.16545000  0.81020000  1.0
  Sn  Sn6  8  0.00000000  0.06179000  0.70612000  1.0
  Sn  Sn7  8  0.25000000  0.10649000  0.25000000  1.0
  Sn  Sn8  8  0.25000000  0.21782000  0.75000000  1.0
  Ni+  Ni9  8  0.00000000  0.04715000  0.35460000  0.625
  Pt+  Pt10  8  0.00000000  0.04715000  0.35460000  0.375
