# generated using pymatgen
data_Cs16U8Pd9.5Pt14.5Se48
_symmetry_space_group_name_H-M  'F m m m'
_cell_length_a   10.09040000
_cell_length_b   15.38590000
_cell_length_c   17.58820000
_cell_angle_alpha   90.00000000
_cell_angle_beta   90.00000000
_cell_angle_gamma   90.00000000
_symmetry_Int_Tables_number   69
_chemical_formula_structural   Cs16U8Pd9.5Pt14.5Se48
_chemical_formula_sum   'Cs16 U8 Pd9.5 Pt14.5 Se48'
_cell_volume   2730.56603369
_cell_formula_units_Z   1
loop_
 _symmetry_equiv_pos_site_id
 _symmetry_equiv_pos_as_xyz
  1  'x, y, z'
  2  '-x, -y, -z'
  3  '-x, -y, z'
  4  'x, y, -z'
  5  'x, -y, -z'
  6  '-x, y, z'
  7  '-x, y, -z'
  8  'x, -y, z'
  9  'x+1/2, y, z+1/2'
  10  '-x+1/2, -y, -z+1/2'
  11  '-x+1/2, -y, z+1/2'
  12  'x+1/2, y, -z+1/2'
  13  'x+1/2, -y, -z+1/2'
  14  '-x+1/2, y, z+1/2'
  15  '-x+1/2, y, -z+1/2'
  16  'x+1/2, -y, z+1/2'
  17  'x+1/2, y+1/2, z'
  18  '-x+1/2, -y+1/2, -z'
  19  '-x+1/2, -y+1/2, z'
  20  'x+1/2, y+1/2, -z'
  21  'x+1/2, -y+1/2, -z'
  22  '-x+1/2, y+1/2, z'
  23  '-x+1/2, y+1/2, -z'
  24  'x+1/2, -y+1/2, z'
  25  'x, y+1/2, z+1/2'
  26  '-x, -y+1/2, -z+1/2'
  27  '-x, -y+1/2, z+1/2'
  28  'x, y+1/2, -z+1/2'
  29  'x, -y+1/2, -z+1/2'
  30  '-x, y+1/2, z+1/2'
  31  '-x, y+1/2, -z+1/2'
  32  'x, -y+1/2, z+1/2'
loop_
 _atom_site_type_symbol
 _atom_site_label
 _atom_site_symmetry_multiplicity
 _atom_site_fract_x
 _atom_site_fract_y
 _atom_site_fract_z
 _atom_site_occupancy
  Cs  Cs0  8  0.00000000  0.18775000  0.50000000  1.0
  Cs  Cs1  8  0.25000000  0.25000000  0.25000000  1.0
  U  U2  8  0.00000000  0.00000000  0.16668000  1.0
  Pd+  Pd3  16  0.16616000  0.00000000  0.33884800  0.59375
  Pt+  Pt4  16  0.16616000  0.00000000  0.33884800  0.40625
  Pt  Pt5  8  0.16767000  0.00000000  0.00000000  1.0
  Se  Se6  32  0.19178000  0.11070000  0.09954000  1.0
  Se  Se7  16  0.00000000  0.10822000  0.30033000  1.0
