# generated using pymatgen
data_Ba7.75Ca8.25Si17.25Ag8Ge0.5C6.25
_symmetry_space_group_name_H-M  'F m m m'
_cell_length_a   8.31500000
_cell_length_b   14.39100000
_cell_length_c   8.64600000
_cell_angle_alpha   90.00000000
_cell_angle_beta   90.00000000
_cell_angle_gamma   90.00000000
_symmetry_Int_Tables_number   69
_chemical_formula_structural   Ba7.75Ca8.25Si17.25Ag8Ge0.5C6.25
_chemical_formula_sum   'Ba7.75 Ca8.25 Si17.25 Ag8 Ge0.5 C6.25'
_cell_volume   1034.59043259
_cell_formula_units_Z   1
loop_
 _symmetry_equiv_pos_site_id
 _symmetry_equiv_pos_as_xyz
  1  'x, y, z'
  2  '-x, -y, -z'
  3  '-x, y, -z'
  4  'x, -y, z'
  5  'x, -y, -z'
  6  '-x, y, z'
  7  '-x, -y, z'
  8  'x, y, -z'
  9  'x+1/2, y+1/2, z'
  10  '-x+1/2, -y+1/2, -z'
  11  '-x+1/2, y+1/2, -z'
  12  'x+1/2, -y+1/2, z'
  13  'x+1/2, -y+1/2, -z'
  14  '-x+1/2, y+1/2, z'
  15  '-x+1/2, -y+1/2, z'
  16  'x+1/2, y+1/2, -z'
  17  'x+1/2, y, z+1/2'
  18  '-x+1/2, -y, -z+1/2'
  19  '-x+1/2, y, -z+1/2'
  20  'x+1/2, -y, z+1/2'
  21  'x+1/2, -y, -z+1/2'
  22  '-x+1/2, y, z+1/2'
  23  '-x+1/2, -y, z+1/2'
  24  'x+1/2, y, -z+1/2'
  25  'x, y+1/2, z+1/2'
  26  '-x, -y+1/2, -z+1/2'
  27  '-x, y+1/2, -z+1/2'
  28  'x, -y+1/2, z+1/2'
  29  'x, -y+1/2, -z+1/2'
  30  '-x, y+1/2, z+1/2'
  31  '-x, -y+1/2, z+1/2'
  32  'x, y+1/2, -z+1/2'
loop_
 _atom_type_symbol
 _atom_type_oxidation_number
  Ba0+  0.0
  Ca0+  0.0
  Si0+  0.0
  Ag0+  0.0
  Ge0+  0.0
  C0+  0.0
loop_
 _atom_site_type_symbol
 _atom_site_label
 _atom_site_symmetry_multiplicity
 _atom_site_fract_x
 _atom_site_fract_y
 _atom_site_fract_z
 _atom_site_occupancy
  Ba0+  Ba0  8  0.00000000  0.00000000  0.24885000  0.96875
  Ca0+  Ca1  8  0.00000000  0.00000000  0.24885000  0.03125
  Ca0+  Ca2  8  0.25000000  0.25000000  0.25000000  1.0
  Si0+  Si3  16  0.24403000  0.08070000  0.00000000  1.0
  Ag0+  Ag4  8  0.00000000  0.16666667  0.50000000  1.0
  C0+  C5  8  0.00000000  0.16180000  0.00000000  0.78125
  Si0+  Si6  8  0.00000000  0.16180000  0.00000000  0.15625
  Ge0+  Ge7  8  0.00000000  0.16180000  0.00000000  0.0625
