# generated using pymatgen
data_P8At14I1.5N8Cl0.5
_symmetry_space_group_name_H-M  'P 42/n :2'
_cell_length_a   11.18700000
_cell_length_b   11.18700000
_cell_length_c   6.18900000
_cell_angle_alpha   90.00000000
_cell_angle_beta   90.00000000
_cell_angle_gamma   90.00000000
_symmetry_Int_Tables_number   86
_chemical_formula_structural   P8At14I1.5N8Cl0.5
_chemical_formula_sum   'P8 At14 I1.5 N8 Cl0.5'
_cell_volume   774.54696914
_cell_formula_units_Z   1
loop_
 _symmetry_equiv_pos_site_id
 _symmetry_equiv_pos_as_xyz
  1  'x, y, z'
  2  '-y, x+1/2, z+1/2'
  3  '-x+1/2, -y+1/2, z'
  4  'y+1/2, -x, z+1/2'
  5  '-x, -y, -z'
  6  'y, -x+1/2, -z+1/2'
  7  'x+1/2, y+1/2, -z'
  8  '-y+1/2, x, -z+1/2'
loop_
 _atom_type_symbol
 _atom_type_oxidation_number
  P0+  0.0
  At0+  0.0
  I0+  0.0
  N0+  0.0
  Cl0+  0.0
loop_
 _atom_site_type_symbol
 _atom_site_label
 _atom_site_symmetry_multiplicity
 _atom_site_fract_x
 _atom_site_fract_y
 _atom_site_fract_z
 _atom_site_occupancy
  P0+  P0  8  0.08070000  0.29510000  0.19140000  1.0
  I0+  I1  8  0.05510000  0.35870000  0.86410000  0.125
  At0+  At2  8  0.05510000  0.35870000  0.86410000  0.875
  At0+  At3  8  0.09660000  0.69300000  0.66570000  0.875
  Cl0+  Cl4  8  0.09660000  0.69300000  0.66570000  0.0625
  I0+  I5  8  0.09660000  0.69300000  0.66570000  0.0625
  N0+  N6  8  0.11700000  0.15970000  0.17010000  1.0
