# generated using pymatgen
data_Fr2.5Na5.5Zr2H32C48N8O20
_symmetry_space_group_name_H-M  'P 42/n :2'
_cell_length_a   11.08300000
_cell_length_b   11.08300000
_cell_length_c   9.54800000
_cell_angle_alpha   90.00000000
_cell_angle_beta   90.00000000
_cell_angle_gamma   90.00000000
_symmetry_Int_Tables_number   86
_chemical_formula_structural   Fr2.5Na5.5Zr2H32C48N8O20
_chemical_formula_sum   'Fr2.5 Na5.5 Zr2 H32 C48 N8 O20'
_cell_volume   1172.80842417
_cell_formula_units_Z   1
loop_
 _symmetry_equiv_pos_site_id
 _symmetry_equiv_pos_as_xyz
  1  'x, y, z'
  2  '-y, x+1/2, z+1/2'
  3  '-x+1/2, -y+1/2, z'
  4  'y+1/2, -x, z+1/2'
  5  '-x, -y, -z'
  6  'y, -x+1/2, -z+1/2'
  7  'x+1/2, y+1/2, -z'
  8  '-y+1/2, x, -z+1/2'
loop_
 _atom_site_type_symbol
 _atom_site_label
 _atom_site_symmetry_multiplicity
 _atom_site_fract_x
 _atom_site_fract_y
 _atom_site_fract_z
 _atom_site_occupancy
  Na+  Na0  8  0.02690000  0.94730000  0.75100000  0.6875
  Fr+  Fr1  8  0.02690000  0.94730000  0.75100000  0.3125
  Zr  Zr2  2  0.25000000  0.25000000  0.75000000  1.0
  H  H3  8  0.01000000  0.31090000  0.53900000  1.0
  H  H4  8  0.04150000  0.64400000  0.83990000  1.0
  H  H5  8  0.09590000  0.77070000  0.64610000  1.0
  H  H6  8  0.18500000  0.77400000  0.89600000  1.0
  C  C7  8  0.01370000  0.08570000  0.32520000  1.0
  C  C8  8  0.02670000  0.80880000  0.61310000  1.0
  C  C9  8  0.02720000  0.21780000  0.93790000  1.0
  C  C10  8  0.03000000  0.38460000  0.12120000  1.0
  C  C11  8  0.03720000  0.23970000  0.49840000  1.0
  C  C12  8  0.08260000  0.32630000  0.00890000  1.0
  N  N13  8  0.13671000  0.18711000  0.54950000  1.0
  O  O14  8  0.06146000  0.83223000  0.01410000  1.0
  O  O15  8  0.08203000  0.18478000  0.82454000  1.0
  O  O16  4  0.25000000  0.75000000  0.33850000  1.0
