# generated using pymatgen
data_Cr4PoP2W20O83Lv2
_symmetry_space_group_name_H-M  'P n -3 m :2'
_cell_length_a   11.75000000
_cell_length_b   11.75000000
_cell_length_c   11.75000000
_cell_angle_alpha   90.00000000
_cell_angle_beta   90.00000000
_cell_angle_gamma   90.00000000
_symmetry_Int_Tables_number   224
_chemical_formula_structural   Cr4PoP2W20O83Lv2
_chemical_formula_sum   'Cr4.0 Po1 P2 W20 O83 Lv2'
_cell_volume   1622.23437500
_cell_formula_units_Z   1
loop_
 _symmetry_equiv_pos_site_id
 _symmetry_equiv_pos_as_xyz
  1  'x, y, z'
  2  '-y, x+1/2, z+1/2'
  3  '-x+1/2, -y+1/2, z'
  4  'y+1/2, -x, z+1/2'
  5  'x, -y+1/2, -z+1/2'
  6  '-y, -x, -z'
  7  '-x+1/2, y, -z+1/2'
  8  'y+1/2, x+1/2, -z'
  9  'z, x, y'
  10  'z+1/2, -y, x+1/2'
  11  'z, -x+1/2, -y+1/2'
  12  'z+1/2, y+1/2, -x'
  13  '-z+1/2, x, -y+1/2'
  14  '-z, -y, -x'
  15  '-z+1/2, -x+1/2, y'
  16  '-z, y+1/2, x+1/2'
  17  'y, z, x'
  18  'x+1/2, z+1/2, -y'
  19  '-y+1/2, z, -x+1/2'
  20  '-x, z+1/2, y+1/2'
  21  '-y+1/2, -z+1/2, x'
  22  '-x, -z, -y'
  23  'y, -z+1/2, -x+1/2'
  24  'x+1/2, -z, y+1/2'
  25  '-x, -y, -z'
  26  'y, -x+1/2, -z+1/2'
  27  'x+1/2, y+1/2, -z'
  28  '-y+1/2, x, -z+1/2'
  29  '-x, y+1/2, z+1/2'
  30  'y, x, z'
  31  'x+1/2, -y, z+1/2'
  32  '-y+1/2, -x+1/2, z'
  33  '-z, -x, -y'
  34  '-z+1/2, y, -x+1/2'
  35  '-z, x+1/2, y+1/2'
  36  '-z+1/2, -y+1/2, x'
  37  'z+1/2, -x, y+1/2'
  38  'z, y, x'
  39  'z+1/2, x+1/2, -y'
  40  'z, -y+1/2, -x+1/2'
  41  '-y, -z, -x'
  42  '-x+1/2, -z+1/2, y'
  43  'y+1/2, -z, x+1/2'
  44  'x, -z+1/2, -y+1/2'
  45  'y+1/2, z+1/2, -x'
  46  'x, z, y'
  47  '-y, z+1/2, x+1/2'
  48  '-x+1/2, z, -y+1/2'
loop_
 _atom_type_symbol
 _atom_type_oxidation_number
  Cr0+  0.0
  Po0+  0.0
  P0+  0.0
  W0+  0.0
  O0+  0.0
  Lv0+  0.0
loop_
 _atom_site_type_symbol
 _atom_site_label
 _atom_site_symmetry_multiplicity
 _atom_site_fract_x
 _atom_site_fract_y
 _atom_site_fract_z
 _atom_site_occupancy
  P0+  P0  2  0.25000000  0.25000000  0.25000000  1.0
  Cr0+  Cr1  24  0.03640000  0.03640000  0.24210000
  0.16666666666666666
  W0+  W2  24  0.03640000  0.03640000  0.24210000
  0.8333333333333334
  O0+  O3  24  0.01330000  0.64630000  0.85370000  1.0
  Lv0+  Lv4  8  0.17740000  0.17740000  0.17740000  0.25
  Po0+  Po5  8  0.17740000  0.17740000  0.17740000  0.125
  O0+  O6  8  0.17740000  0.17740000  0.17740000  0.625
  O0+  O7  24  0.04620000  0.63130000  0.63130000  1.0
  O0+  O8  24  0.06290000  0.06290000  0.74120000  1.0
  O0+  O9  6  0.25000000  0.25000000  0.75000000  1.0
