# generated using pymatgen
data_Cs1.66666667K2.0H32.33333333C42N6O6
_symmetry_space_group_name_H-M  'P 6/m'
_cell_length_a   22.50600000
_cell_length_b   22.50600000
_cell_length_c   3.50000000
_cell_angle_alpha   90.00000000
_cell_angle_beta   90.00000000
_cell_angle_gamma   120.00000000
_symmetry_Int_Tables_number   175
_chemical_formula_structural   Cs1.66666667K2.0H32.33333333C42N6O6
_chemical_formula_sum   'Cs1.66666667 K2.0 H32.33333333 C42 N6 O6'
_cell_volume   1535.30726546
_cell_formula_units_Z   1
loop_
 _symmetry_equiv_pos_site_id
 _symmetry_equiv_pos_as_xyz
  1  'x, y, z'
  2  '-x, -y, -z'
  3  'x-y, x, z'
  4  '-x+y, -x, -z'
  5  '-y, x-y, z'
  6  'y, -x+y, -z'
  7  '-x, -y, z'
  8  'x, y, -z'
  9  '-x+y, -x, z'
  10  'x-y, x, -z'
  11  'y, -x+y, z'
  12  '-y, x-y, -z'
loop_
 _atom_site_type_symbol
 _atom_site_label
 _atom_site_symmetry_multiplicity
 _atom_site_fract_x
 _atom_site_fract_y
 _atom_site_fract_z
 _atom_site_occupancy
  K+  K0  6  0.07943000  0.45314000  0.00000000  0.3333333333333333
  Cs+  Cs1  6  0.07943000  0.45314000  0.00000000
  0.2777777777777778
  H+  H2  6  0.07943000  0.45314000  0.00000000  0.3888888888888889
  H  H3  12  0.08454000  0.67406000  0.25720000  1.0
  H  H4  6  0.00961000  0.65923000  0.00000000  1.0
  H  H5  6  0.16159000  0.64262000  0.00000000  1.0
  H  H6  6  0.17217000  0.51518000  0.00000000  1.0
  C  C7  6  0.02665000  0.57227000  0.00000000  1.0
  C  C8  6  0.04388000  0.47368000  0.00000000  1.0
  C  C9  6  0.05334000  0.64870000  0.00000000  1.0
  C  C10  6  0.07196000  0.54543000  0.00000000  1.0
  C  C11  6  0.18979000  0.57090000  0.00000000  1.0
  C  C12  6  0.25951000  0.61813000  0.00000000  1.0
  C  C13  6  0.28388000  0.69250000  0.00000000  1.0
  N  N14  6  0.14095000  0.58807000  0.00000000  1.0
  O  O15  6  0.24233000  0.71526000  0.00000000  1.0
