# generated using pymatgen
data_D12Ra1.0Sr4.33333333Mg6.66666667N12
_symmetry_space_group_name_H-M  'P 6/m'
_cell_length_a   11.57961000
_cell_length_b   11.57961000
_cell_length_c   3.68110000
_cell_angle_alpha   90.00000000
_cell_angle_beta   90.00000000
_cell_angle_gamma   120.00000000
_symmetry_Int_Tables_number   175
_chemical_formula_structural   D12Ra1.0Sr4.33333333Mg6.66666667N12
_chemical_formula_sum   'D12 Ra1.0 Sr4.33333333 Mg6.66666667 N12'
_cell_volume   427.46062120
_cell_formula_units_Z   1
loop_
 _symmetry_equiv_pos_site_id
 _symmetry_equiv_pos_as_xyz
  1  'x, y, z'
  2  '-x, -y, -z'
  3  'x-y, x, z'
  4  '-x+y, -x, -z'
  5  '-y, x-y, z'
  6  'y, -x+y, -z'
  7  '-x, -y, z'
  8  'x, y, -z'
  9  '-x+y, -x, z'
  10  'x-y, x, -z'
  11  'y, -x+y, z'
  12  '-y, x-y, -z'
loop_
 _atom_site_type_symbol
 _atom_site_label
 _atom_site_symmetry_multiplicity
 _atom_site_fract_x
 _atom_site_fract_y
 _atom_site_fract_z
 _atom_site_occupancy
  D  D0  6  0.05980000  0.25500000  0.00000000  1.0
  D  D1  6  0.23340000  0.66070000  0.50000000  1.0
  Sr+  Sr2  6  0.13230000  0.71630000  0.00000000
  0.7222222222222222
  Ra+  Ra3  6  0.13230000  0.71630000  0.00000000
  0.16666666666666666
  Mg+  Mg4  6  0.13230000  0.71630000  0.00000000
  0.1111111111111111
  Mg  Mg5  6  0.07150000  0.42790000  0.50000000  1.0
  N  N6  6  0.07620000  0.34830000  0.00000000  1.0
  N  N7  6  0.13670000  0.63210000  0.50000000  1.0
