# generated using pymatgen
data_Cs0.66666667Rb3.33333333Cd1.66666667Hg0.33333333I1.33333333Ts2.33333333Br0
_symmetry_space_group_name_H-M  'I 4/m m m'
_cell_length_a   4.05800000
_cell_length_b   4.05800000
_cell_length_c   13.10900000
_cell_angle_alpha   90.00000000
_cell_angle_beta   90.00000000
_cell_angle_gamma   90.00000000
_symmetry_Int_Tables_number   139
_chemical_formula_structural
;
Cs0.66666667Rb3.33333333Cd1.66666667Hg0.33333333I1.33333333Ts2.3333333
3Br0.33333333F4
;
_chemical_formula_sum
;
Cs0.66666667 Rb3.33333333 Cd1.66666667 Hg0.33333333 I1.33333333
Ts2.33333333 Br0.33333333 F4
;
_cell_volume   215.87067468
_cell_formula_units_Z   1
loop_
 _symmetry_equiv_pos_site_id
 _symmetry_equiv_pos_as_xyz
  1  'x, y, z'
  2  '-x, -y, -z'
  3  '-y, x, z'
  4  'y, -x, -z'
  5  '-x, -y, z'
  6  'x, y, -z'
  7  'y, -x, z'
  8  '-y, x, -z'
  9  'x, -y, -z'
  10  '-x, y, z'
  11  '-y, -x, -z'
  12  'y, x, z'
  13  '-x, y, -z'
  14  'x, -y, z'
  15  'y, x, -z'
  16  '-y, -x, z'
  17  'x+1/2, y+1/2, z+1/2'
  18  '-x+1/2, -y+1/2, -z+1/2'
  19  '-y+1/2, x+1/2, z+1/2'
  20  'y+1/2, -x+1/2, -z+1/2'
  21  '-x+1/2, -y+1/2, z+1/2'
  22  'x+1/2, y+1/2, -z+1/2'
  23  'y+1/2, -x+1/2, z+1/2'
  24  '-y+1/2, x+1/2, -z+1/2'
  25  'x+1/2, -y+1/2, -z+1/2'
  26  '-x+1/2, y+1/2, z+1/2'
  27  '-y+1/2, -x+1/2, -z+1/2'
  28  'y+1/2, x+1/2, z+1/2'
  29  '-x+1/2, y+1/2, -z+1/2'
  30  'x+1/2, -y+1/2, z+1/2'
  31  'y+1/2, x+1/2, -z+1/2'
  32  '-y+1/2, -x+1/2, z+1/2'
loop_
 _atom_type_symbol
 _atom_type_oxidation_number
  Cs0+  0.0
  Rb0+  0.0
  Cd0+  0.0
  Hg0+  0.0
  I0+  0.0
  Br0+  0.0
  F0+  0.0
  Ts0+  0.0
loop_
 _atom_site_type_symbol
 _atom_site_label
 _atom_site_symmetry_multiplicity
 _atom_site_fract_x
 _atom_site_fract_y
 _atom_site_fract_z
 _atom_site_occupancy
  Cs0+  Cs0  4  0.00000000  0.00000000  0.35380000
  0.16666666666666666
  Rb0+  Rb1  4  0.00000000  0.00000000  0.35380000
  0.8333333333333334
  Cd0+  Cd2  2  0.00000000  0.00000000  0.00000000
  0.8333333333333334
  Hg0+  Hg3  2  0.00000000  0.00000000  0.00000000
  0.16666666666666666
  I0+  I4  4  0.00000000  0.50000000  0.00000000  0.3333333333333333
  Ts0+  Ts5  4  0.00000000  0.50000000  0.00000000
  0.5833333333333334
  Br0+  Br6  4  0.00000000  0.50000000  0.00000000
  0.08333333333333333
  F0+  F7  4  0.00000000  0.00000000  0.15460000  1.0
