# generated using pymatgen
data_Ti0.83333333Rf1.16666667Al0.66666667Tl1.33333333Ga4
_symmetry_space_group_name_H-M  'I 4/m m m'
_cell_length_a   3.93100000
_cell_length_b   3.93100000
_cell_length_c   8.10900000
_cell_angle_alpha   90.00000000
_cell_angle_beta   90.00000000
_cell_angle_gamma   90.00000000
_symmetry_Int_Tables_number   139
_chemical_formula_structural
Ti0.83333333Rf1.16666667Al0.66666667Tl1.33333333Ga4
_chemical_formula_sum
'Ti0.83333333 Rf1.16666667 Al0.66666667 Tl1.33333333 Ga4'
_cell_volume   125.30643895
_cell_formula_units_Z   1
loop_
 _symmetry_equiv_pos_site_id
 _symmetry_equiv_pos_as_xyz
  1  'x, y, z'
  2  '-x, -y, -z'
  3  '-y, x, z'
  4  'y, -x, -z'
  5  '-x, -y, z'
  6  'x, y, -z'
  7  'y, -x, z'
  8  '-y, x, -z'
  9  'x, -y, -z'
  10  '-x, y, z'
  11  '-y, -x, -z'
  12  'y, x, z'
  13  '-x, y, -z'
  14  'x, -y, z'
  15  'y, x, -z'
  16  '-y, -x, z'
  17  'x+1/2, y+1/2, z+1/2'
  18  '-x+1/2, -y+1/2, -z+1/2'
  19  '-y+1/2, x+1/2, z+1/2'
  20  'y+1/2, -x+1/2, -z+1/2'
  21  '-x+1/2, -y+1/2, z+1/2'
  22  'x+1/2, y+1/2, -z+1/2'
  23  'y+1/2, -x+1/2, z+1/2'
  24  '-y+1/2, x+1/2, -z+1/2'
  25  'x+1/2, -y+1/2, -z+1/2'
  26  '-x+1/2, y+1/2, z+1/2'
  27  '-y+1/2, -x+1/2, -z+1/2'
  28  'y+1/2, x+1/2, z+1/2'
  29  '-x+1/2, y+1/2, -z+1/2'
  30  'x+1/2, -y+1/2, z+1/2'
  31  'y+1/2, x+1/2, -z+1/2'
  32  '-y+1/2, -x+1/2, z+1/2'
loop_
 _atom_site_type_symbol
 _atom_site_label
 _atom_site_symmetry_multiplicity
 _atom_site_fract_x
 _atom_site_fract_y
 _atom_site_fract_z
 _atom_site_occupancy
  Ti+  Ti0  2  0.00000000  0.00000000  0.00000000
  0.4166666666666667
  Rf+  Rf1  2  0.00000000  0.00000000  0.00000000
  0.5833333333333334
  Tl+  Tl2  2  0.00000000  0.00000000  0.50000000
  0.6666666666666666
  Al+  Al3  2  0.00000000  0.00000000  0.50000000
  0.3333333333333333
  Ga  Ga4  4  0.00000000  0.50000000  0.25000000  1.0
