# generated using pymatgen
data_Ni4Po0.5Sb8Te5O10.5
_symmetry_space_group_name_H-M  'P 42/m b c'
_cell_length_a   8.37200000
_cell_length_b   8.37200000
_cell_length_c   5.90800000
_cell_angle_alpha   90.00000000
_cell_angle_beta   90.00000000
_cell_angle_gamma   90.00000000
_symmetry_Int_Tables_number   135
_chemical_formula_structural   Ni4Po0.5Sb8Te5O10.5
_chemical_formula_sum   'Ni4 Po0.5 Sb8 Te5 O10.5'
_cell_volume   414.09398867
_cell_formula_units_Z   1
loop_
 _symmetry_equiv_pos_site_id
 _symmetry_equiv_pos_as_xyz
  1  'x, y, z'
  2  '-x, -y, -z'
  3  '-y, x, z+1/2'
  4  'y, -x, -z+1/2'
  5  '-x, -y, z'
  6  'x, y, -z'
  7  'y, -x, z+1/2'
  8  '-y, x, -z+1/2'
  9  'x+1/2, -y+1/2, -z'
  10  '-x+1/2, y+1/2, z'
  11  '-y+1/2, -x+1/2, -z+1/2'
  12  'y+1/2, x+1/2, z+1/2'
  13  '-x+1/2, y+1/2, -z'
  14  'x+1/2, -y+1/2, z'
  15  'y+1/2, x+1/2, -z+1/2'
  16  '-y+1/2, -x+1/2, z+1/2'
loop_
 _atom_type_symbol
 _atom_type_oxidation_number
  Ni0+  0.0
  Po0+  0.0
  Sb0+  0.0
  Te0+  0.0
  O0+  0.0
loop_
 _atom_site_type_symbol
 _atom_site_label
 _atom_site_symmetry_multiplicity
 _atom_site_fract_x
 _atom_site_fract_y
 _atom_site_fract_z
 _atom_site_occupancy
  Ni0+  Ni0  4  0.00000000  0.50000000  0.25000000  1.0
  Sb0+  Sb1  8  0.16310000  0.82750000  0.50000000  1.0
  Po0+  Po2  8  0.09890000  0.63830000  0.00000000  0.0625
  Te0+  Te3  8  0.09890000  0.63830000  0.00000000  0.625
  O0+  O4  8  0.09890000  0.63830000  0.00000000  0.3125
  O0+  O5  8  0.17600000  0.32400000  0.25000000  1.0
