# generated using pymatgen
data_Co24Te12Se6S0.66666667Cl8O41.33333333
_symmetry_space_group_name_H-M  'P 42/m b c'
_cell_length_a   8.38710000
_cell_length_b   8.38710000
_cell_length_c   18.56340000
_cell_angle_alpha   90.00000000
_cell_angle_beta   90.00000000
_cell_angle_gamma   90.00000000
_symmetry_Int_Tables_number   135
_chemical_formula_structural   Co24Te12Se6S0.66666667Cl8O41.33333333
_chemical_formula_sum   'Co24 Te12 Se6 S0.66666667 Cl8 O41.33333333'
_cell_volume   1305.81353309
_cell_formula_units_Z   1
loop_
 _symmetry_equiv_pos_site_id
 _symmetry_equiv_pos_as_xyz
  1  'x, y, z'
  2  '-x, -y, -z'
  3  '-y, x, z+1/2'
  4  'y, -x, -z+1/2'
  5  '-x, -y, z'
  6  'x, y, -z'
  7  'y, -x, z+1/2'
  8  '-y, x, -z+1/2'
  9  'x+1/2, -y+1/2, -z'
  10  '-x+1/2, y+1/2, z'
  11  '-y+1/2, -x+1/2, -z+1/2'
  12  'y+1/2, x+1/2, z+1/2'
  13  '-x+1/2, y+1/2, -z'
  14  'x+1/2, -y+1/2, z'
  15  'y+1/2, x+1/2, -z+1/2'
  16  '-y+1/2, -x+1/2, z+1/2'
loop_
 _atom_type_symbol
 _atom_type_oxidation_number
  Co0+  0.0
  Te0+  0.0
  Se0+  0.0
  S0+  0.0
  Cl0+  0.0
  O0+  0.0
loop_
 _atom_site_type_symbol
 _atom_site_label
 _atom_site_symmetry_multiplicity
 _atom_site_fract_x
 _atom_site_fract_y
 _atom_site_fract_z
 _atom_site_occupancy
  Co0+  Co0  16  0.18264000  0.80031000  0.66813000  1.0
  Co0+  Co1  8  0.00000000  0.50000000  0.08383000  1.0
  Te0+  Te2  8  0.17973000  0.81214000  0.00000000  1.0
  Te0+  Te3  4  0.00000000  0.50000000  0.25000000  1.0
  Se0+  Se4  8  0.16240000  0.66240000  0.25000000  0.75
  O0+  O5  8  0.16240000  0.66240000  0.25000000
  0.16666666666666666
  S0+  S6  8  0.16240000  0.66240000  0.25000000
  0.08333333333333333
  Cl0+  Cl7  8  0.00000000  0.00000000  0.14649000  1.0
  O0+  O8  16  0.10070000  0.38450000  0.32707000  1.0
  O0+  O9  16  0.16260000  0.68870000  0.57497000  1.0
  O0+  O10  8  0.10000000  0.35840000  0.00000000  1.0
