# generated using pymatgen
data_Si1.75Sn0.25Ge0.5H40Pb0.25C44Fl1.25N24O8
_symmetry_space_group_name_H-M  'P 1 c 1'
_cell_length_a   6.92600000
_cell_length_b   9.24200000
_cell_length_c   18.15800000
_cell_angle_alpha   90.00000000
_cell_angle_beta   90.04000000
_cell_angle_gamma   90.00000000
_symmetry_Int_Tables_number   7
_chemical_formula_structural
Si1.75Sn0.25Ge0.5H40Pb0.25C44Fl1.25N24O8
_chemical_formula_sum
'Si1.75 Sn0.25 Ge0.5 H40 Pb0.25 C44 Fl1.25 N24 O8'
_cell_volume   1162.29496729
_cell_formula_units_Z   1
loop_
 _symmetry_equiv_pos_site_id
 _symmetry_equiv_pos_as_xyz
  1  'x, y, z'
  2  'x, -y, z+1/2'
loop_
 _atom_site_type_symbol
 _atom_site_label
 _atom_site_symmetry_multiplicity
 _atom_site_fract_x
 _atom_site_fract_y
 _atom_site_fract_z
 _atom_site_occupancy
  C+  C0  2  0.36790000  0.46700000  0.27990000  0.25
  Si+  Si1  2  0.36790000  0.46700000  0.27990000  0.5
  Ge+  Ge2  2  0.36790000  0.46700000  0.27990000  0.125
  Pb+  Pb3  2  0.36790000  0.46700000  0.27990000  0.125
  H  H4  2  0.03900000  0.14400000  0.88800000  1.0
  H  H5  2  0.04600000  0.12600000  0.56100000  1.0
  H  H6  2  0.11800000  0.00500000  0.77700000  1.0
  H  H7  2  0.12500000  0.06300000  0.48700000  1.0
  H  H8  2  0.20000000  0.07000000  0.16400000  1.0
  H  H9  2  0.27100000  0.19300000  0.04500000  1.0
  H  H10  2  0.28700000  0.20000000  0.38000000  1.0
  H  H11  2  0.36600000  0.06200000  0.38500000  1.0
  H  H12  2  0.37900000  0.42700000  0.45500000  1.0
  H  H13  2  0.47800000  0.34700000  0.95800000  1.0
  H  H14  2  0.50600000  0.12200000  0.86400000  1.0
  H  H15  2  0.56100000  0.14800000  0.53100000  1.0
  H  H16  2  0.62400000  0.00600000  0.63600000  1.0
  H  H17  2  0.63800000  0.05900000  0.92900000  1.0
  H  H18  2  0.68500000  0.08200000  0.26200000  1.0
  H  H19  2  0.73700000  0.20400000  0.05100000  1.0
  H  H20  2  0.74900000  0.20100000  0.38200000  1.0
  H  H21  2  0.87800000  0.41400000  0.96600000  1.0
  H  H22  2  0.87900000  0.05900000  0.02000000  1.0
  H  H23  2  0.97700000  0.34200000  0.46700000  1.0
  Ge+  Ge24  2  0.93660000  0.38950000  0.63610000  0.125
  Sn+  Sn25  2  0.93660000  0.38950000  0.63610000  0.125
  C+  C26  2  0.93660000  0.38950000  0.63610000  0.75
  C  C27  2  0.01830000  0.19020000  0.83720000  1.0
  C  C28  2  0.05790000  0.11770000  0.77170000  1.0
  C  C29  2  0.23760000  0.18710000  0.15150000  1.0
  C  C30  2  0.33210000  0.39090000  0.21130000  1.0
  C  C31  2  0.36640000  0.45980000  0.14420000  1.0
  C  C32  2  0.37900000  0.47190000  0.40580000  1.0
  C  C33  2  0.43250000  0.39080000  0.64150000  1.0
  C  C34  2  0.43720000  0.38950000  0.77720000  1.0
  C  C35  2  0.45190000  0.38540000  0.90320000  1.0
  C  C36  2  0.46830000  0.31780000  0.70720000  1.0
  Si+  Si37  2  0.27710000  0.25430000  0.08410000  0.375
  Fl+  Fl38  2  0.27710000  0.25430000  0.08410000  0.625
  C  C39  2  0.51810000  0.19060000  0.57750000  1.0
  C  C40  2  0.55920000  0.11600000  0.64280000  1.0
  C  C41  2  0.73890000  0.18730000  0.26200000  1.0
  C  C42  2  0.77790000  0.25400000  0.33010000  1.0
  C  C43  2  0.83010000  0.39060000  0.20290000  1.0
  C  C44  2  0.86780000  0.45960000  0.27010000  1.0
  C  C45  2  0.86810000  0.46690000  0.13460000  1.0
  C  C46  2  0.87950000  0.47300000  0.00840000  1.0
  C  C47  2  0.93180000  0.39020000  0.77210000  1.0
  C  C48  2  0.95190000  0.38710000  0.51090000  1.0
  C  C49  2  0.96880000  0.31790000  0.70630000  1.0
  N  N50  2  0.03350000  0.17770000  0.70540000  1.0
  N  N51  2  0.26190000  0.25280000  0.21600000  1.0
  N  N52  2  0.33730000  0.39860000  0.34440000  1.0
  N  N53  2  0.34180000  0.38970000  0.07900000  1.0
  N  N54  2  0.45870000  0.32610000  0.57510000  1.0
  N  N55  2  0.47990000  0.31700000  0.84040000  1.0
  N  N56  2  0.53460000  0.17760000  0.70770000  1.0
  N  N57  2  0.76340000  0.25280000  0.19850000  1.0
  N  N58  2  0.83750000  0.39880000  0.06910000  1.0
  N  N59  2  0.84080000  0.38960000  0.33500000  1.0
  N  N60  2  0.95730000  0.32570000  0.83880000  1.0
  N  N61  2  0.97980000  0.31640000  0.57370000  1.0
  O  O62  2  0.08750000  0.03420000  0.52660000  1.0
  O  O63  2  0.23900000  0.10980000  0.39270000  1.0
  O  O64  2  0.58720000  0.03520000  0.88730000  1.0
  O  O65  2  0.73800000  0.10950000  0.02170000  1.0
