# generated using pymatgen
data_Sm4GdHo10Tm17O48
_symmetry_space_group_name_H-M  'I a -3'
_cell_length_a   10.58000000
_cell_length_b   10.58000000
_cell_length_c   10.58000000
_cell_angle_alpha   90.00000000
_cell_angle_beta   90.00000000
_cell_angle_gamma   90.00000000
_symmetry_Int_Tables_number   206
_chemical_formula_structural   Sm4GdHo10Tm17O48
_chemical_formula_sum   'Sm4.0 Gd1.0 Ho10 Tm17 O48'
_cell_volume   1184.28711200
_cell_formula_units_Z   1
loop_
 _symmetry_equiv_pos_site_id
 _symmetry_equiv_pos_as_xyz
  1  'x, y, z'
  2  '-x, -y, -z'
  3  '-x, -y+1/2, z'
  4  'x, y+1/2, -z'
  5  'x, -y, -z+1/2'
  6  '-x, y, z+1/2'
  7  '-x+1/2, y, -z'
  8  'x+1/2, -y, z'
  9  'z, x, y'
  10  '-z, -x, -y'
  11  'z, -x, -y+1/2'
  12  '-z, x, y+1/2'
  13  '-z+1/2, x, -y'
  14  'z+1/2, -x, y'
  15  '-z, -x+1/2, y'
  16  'z, x+1/2, -y'
  17  'y, z, x'
  18  '-y, -z, -x'
  19  '-y+1/2, z, -x'
  20  'y+1/2, -z, x'
  21  '-y, -z+1/2, x'
  22  'y, z+1/2, -x'
  23  'y, -z, -x+1/2'
  24  '-y, z, x+1/2'
  25  'x+1/2, y+1/2, z+1/2'
  26  '-x+1/2, -y+1/2, -z+1/2'
  27  '-x+1/2, -y, z+1/2'
  28  'x+1/2, y, -z+1/2'
  29  'x+1/2, -y+1/2, -z'
  30  '-x+1/2, y+1/2, z'
  31  '-x, y+1/2, -z+1/2'
  32  'x, -y+1/2, z+1/2'
  33  'z+1/2, x+1/2, y+1/2'
  34  '-z+1/2, -x+1/2, -y+1/2'
  35  'z+1/2, -x+1/2, -y'
  36  '-z+1/2, x+1/2, y'
  37  '-z, x+1/2, -y+1/2'
  38  'z, -x+1/2, y+1/2'
  39  '-z+1/2, -x, y+1/2'
  40  'z+1/2, x, -y+1/2'
  41  'y+1/2, z+1/2, x+1/2'
  42  '-y+1/2, -z+1/2, -x+1/2'
  43  '-y, z+1/2, -x+1/2'
  44  'y, -z+1/2, x+1/2'
  45  '-y+1/2, -z, x+1/2'
  46  'y+1/2, z, -x+1/2'
  47  'y+1/2, -z+1/2, -x'
  48  '-y+1/2, z+1/2, x'
loop_
 _atom_type_symbol
 _atom_type_oxidation_number
  Sm0+  0.0
  Gd0+  0.0
  Ho0+  0.0
  Tm0+  0.0
  O0+  0.0
loop_
 _atom_site_type_symbol
 _atom_site_label
 _atom_site_symmetry_multiplicity
 _atom_site_fract_x
 _atom_site_fract_y
 _atom_site_fract_z
 _atom_site_occupancy
  Ho0+  Ho0  8  0.25000000  0.25000000  0.25000000  1.0
  Tm0+  Tm1  24  0.00000000  0.25000000  0.46745000
  0.7083333333333334
  Sm0+  Sm2  24  0.00000000  0.25000000  0.46745000
  0.16666666666666666
  Gd0+  Gd3  24  0.00000000  0.25000000  0.46745000
  0.041666666666666664
  Ho0+  Ho4  24  0.00000000  0.25000000  0.46745000
  0.08333333333333333
  O0+  O5  48  0.10920000  0.15270000  0.61830000  1.0
