# generated using pymatgen
data_Re4Sn1Ge1.5H120Pb1C84.5N16Cl4O8
_symmetry_space_group_name_H-M  'I 4 2 2'
_cell_length_a   14.44660000
_cell_length_b   14.44660000
_cell_length_c   12.07110000
_cell_angle_alpha   90.00000000
_cell_angle_beta   90.00000000
_cell_angle_gamma   90.00000000
_symmetry_Int_Tables_number   97
_chemical_formula_structural   Re4Sn1Ge1.5H120Pb1C84.5N16Cl4O8
_chemical_formula_sum   'Re4 Sn1 Ge1.5 H120 Pb1 C84.5 N16 Cl4 O8'
_cell_volume   2519.28989101
_cell_formula_units_Z   1
loop_
 _symmetry_equiv_pos_site_id
 _symmetry_equiv_pos_as_xyz
  1  'x, y, z'
  2  '-y, x, z'
  3  '-x, -y, z'
  4  'y, -x, z'
  5  'x, -y, -z'
  6  '-y, -x, -z'
  7  '-x, y, -z'
  8  'y, x, -z'
  9  'x+1/2, y+1/2, z+1/2'
  10  '-y+1/2, x+1/2, z+1/2'
  11  '-x+1/2, -y+1/2, z+1/2'
  12  'y+1/2, -x+1/2, z+1/2'
  13  'x+1/2, -y+1/2, -z+1/2'
  14  '-y+1/2, -x+1/2, -z+1/2'
  15  '-x+1/2, y+1/2, -z+1/2'
  16  'y+1/2, x+1/2, -z+1/2'
loop_
 _atom_site_type_symbol
 _atom_site_label
 _atom_site_symmetry_multiplicity
 _atom_site_fract_x
 _atom_site_fract_y
 _atom_site_fract_z
 _atom_site_occupancy
  Re  Re0  4  0.00000000  0.00000000  0.40818000  1.0
  H  H1  16  0.00310000  0.22850000  0.28040000  1.0
  H  H2  16  0.06970000  0.28770000  0.65450000  1.0
  H  H3  16  0.07780000  0.25360000  0.05990000  1.0
  H  H4  16  0.07960000  0.27460000  0.78290000  1.0
  H  H5  16  0.10900000  0.12240000  0.76050000  1.0
  H  H6  16  0.12980000  0.31210000  0.44100000  1.0
  H  H7  16  0.18140000  0.18140000  0.30450000  1.0
  H  H8  8  0.10860000  0.10860000  0.00000000  1.0
  Sn+  Sn9  8  0.13570000  0.13570000  0.50000000  0.125
  C+  C10  8  0.13570000  0.13570000  0.50000000  0.5625
  Pb+  Pb11  8  0.13570000  0.13570000  0.50000000  0.125
  Ge+  Ge12  8  0.13570000  0.13570000  0.50000000  0.1875
  C  C13  16  0.06100000  0.24540000  0.71500000  1.0
  C  C14  16  0.11700000  0.16250000  0.69670000  1.0
  C  C15  16  0.13710000  0.23990000  0.03460000  1.0
  C  C16  16  0.18910000  0.29660000  0.46480000  1.0
  C  C17  8  0.15410000  0.15410000  0.00000000  1.0
  C  C18  8  0.20880000  0.20880000  0.50000000  1.0
  N  N19  16  0.09960000  0.10570000  0.59510000  1.0
  Cl  Cl20  4  0.00000000  0.00000000  0.18980000  1.0
  O  O21  8  0.00000000  0.50000000  0.13500000  1.0
