# generated using pymatgen
data_Cd1Ga0.5Po1.0B0.5N1Mc2Te3.5Se0.5Lv1.0
_symmetry_space_group_name_H-M  'P m -3'
_cell_length_a   5.34000000
_cell_length_b   5.34000000
_cell_length_c   5.34000000
_cell_angle_alpha   90.00000000
_cell_angle_beta   90.00000000
_cell_angle_gamma   90.00000000
_symmetry_Int_Tables_number   200
_chemical_formula_structural   Cd1Ga0.5Po1.0B0.5N1Mc2Te3.5Se0.5Lv1.0
_chemical_formula_sum
'Cd1 Ga0.5 Po1.0 B0.5 N1 Mc2 Te3.5 Se0.5 Lv1.0'
_cell_volume   152.27330400
_cell_formula_units_Z   1
loop_
 _symmetry_equiv_pos_site_id
 _symmetry_equiv_pos_as_xyz
  1  'x, y, z'
  2  '-x, -y, -z'
  3  '-x, -y, z'
  4  'x, y, -z'
  5  'x, -y, -z'
  6  '-x, y, z'
  7  '-x, y, -z'
  8  'x, -y, z'
  9  'z, x, y'
  10  '-z, -x, -y'
  11  'z, -x, -y'
  12  '-z, x, y'
  13  '-z, x, -y'
  14  'z, -x, y'
  15  '-z, -x, y'
  16  'z, x, -y'
  17  'y, z, x'
  18  '-y, -z, -x'
  19  '-y, z, -x'
  20  'y, -z, x'
  21  '-y, -z, x'
  22  'y, z, -x'
  23  'y, -z, -x'
  24  '-y, z, x'
loop_
 _atom_type_symbol
 _atom_type_oxidation_number
  Cd2+  2.0
  Ga+  1.0
  Po2-  -2.0
  B+  1.0
  Te2-  -2.0
  Se2-  -2.0
  N3+  3.0
  Lv2-  -2.0
  Mc3+  3.0
loop_
 _atom_site_type_symbol
 _atom_site_label
 _atom_site_symmetry_multiplicity
 _atom_site_fract_x
 _atom_site_fract_y
 _atom_site_fract_z
 _atom_site_occupancy
  Cd2+  Cd0  1  0.50000000  0.50000000  0.50000000  1.0
  B+  B1  1  0.00000000  0.00000000  0.00000000  0.5
  Ga+  Ga2  1  0.00000000  0.00000000  0.00000000  0.5
  N3+  N3  3  0.00000000  0.50000000  0.50000000  0.3333333333333333
  Mc3+  Mc4  3  0.00000000  0.50000000  0.50000000
  0.6666666666666666
  Te2-  Te5  6  0.00000000  0.24000000  0.50000000
  0.5833333333333334
  Po2-  Po6  6  0.00000000  0.24000000  0.50000000
  0.16666666666666666
  Se2-  Se7  6  0.00000000  0.24000000  0.50000000
  0.08333333333333333
  Lv2-  Lv8  6  0.00000000  0.24000000  0.50000000
  0.16666666666666666
