# generated using pymatgen
data_Ba16Sr2At2Pb48Se2SI6Cl28O45
_symmetry_space_group_name_H-M  'I 4/m'
_cell_length_a   16.24180000
_cell_length_b   16.24180000
_cell_length_c   12.98640000
_cell_angle_alpha   90.00000000
_cell_angle_beta   90.00000000
_cell_angle_gamma   90.00000000
_symmetry_Int_Tables_number   87
_chemical_formula_structural   Ba16Sr2At2Pb48Se2SI6Cl28O45
_chemical_formula_sum   'Ba16 Sr2 At2 Pb48 Se2 S1 I6 Cl28 O45'
_cell_volume   3425.76124761
_cell_formula_units_Z   1
loop_
 _symmetry_equiv_pos_site_id
 _symmetry_equiv_pos_as_xyz
  1  'x, y, z'
  2  '-x, -y, -z'
  3  '-y, x, z'
  4  'y, -x, -z'
  5  '-x, -y, z'
  6  'x, y, -z'
  7  'y, -x, z'
  8  '-y, x, -z'
  9  'x+1/2, y+1/2, z+1/2'
  10  '-x+1/2, -y+1/2, -z+1/2'
  11  '-y+1/2, x+1/2, z+1/2'
  12  'y+1/2, -x+1/2, -z+1/2'
  13  '-x+1/2, -y+1/2, z+1/2'
  14  'x+1/2, y+1/2, -z+1/2'
  15  'y+1/2, -x+1/2, z+1/2'
  16  '-y+1/2, x+1/2, -z+1/2'
loop_
 _atom_site_type_symbol
 _atom_site_label
 _atom_site_symmetry_multiplicity
 _atom_site_fract_x
 _atom_site_fract_y
 _atom_site_fract_z
 _atom_site_occupancy
  Ba  Ba0  16  0.16926000  0.70885000  0.15677000  1.0
  Sr  Sr1  2  0.00000000  0.00000000  0.00000000  1.0
  Pb  Pb2  16  0.02327000  0.62868000  0.35621000  1.0
  Pb  Pb3  16  0.06266000  0.25375000  0.15431000  1.0
  Pb  Pb4  16  0.09783000  0.85229000  0.35138000  1.0
  At+  At5  8  0.17520000  0.72470000  0.50000000  0.25
  I+  I6  8  0.17520000  0.72470000  0.50000000  0.75
  Cl  Cl7  8  0.04060000  0.62820000  0.00000000  1.0
  Cl  Cl8  8  0.07220000  0.24220000  0.50000000  1.0
  Cl  Cl9  8  0.09420000  0.84790000  0.00000000  1.0
  Cl  Cl10  4  0.00000000  0.00000000  0.22070000  1.0
  O+  O11  16  0.16570000  0.20470000  0.25700000  0.8125
  S+  S12  16  0.16570000  0.20470000  0.25700000  0.0625
  Se+  Se13  16  0.16570000  0.20470000  0.25700000  0.125
  O  O14  16  0.04660000  0.74850000  0.26590000  1.0
  O  O15  16  0.08450000  0.37130000  0.24640000  1.0
