# generated using pymatgen
data_Sr4Ni2Po1Te1W2S1.33333333O8.66666667
_symmetry_space_group_name_H-M  'I 4/m'
_cell_length_a   5.55710000
_cell_length_b   5.55710000
_cell_length_c   7.91310000
_cell_angle_alpha   90.00000000
_cell_angle_beta   90.00000000
_cell_angle_gamma   90.00000000
_symmetry_Int_Tables_number   87
_chemical_formula_structural   Sr4Ni2Po1Te1W2S1.33333333O8.66666667
_chemical_formula_sum   'Sr4 Ni2 Po1 Te1 W2 S1.33333333 O8.66666667'
_cell_volume   244.36729306
_cell_formula_units_Z   1
loop_
 _symmetry_equiv_pos_site_id
 _symmetry_equiv_pos_as_xyz
  1  'x, y, z'
  2  '-x, -y, -z'
  3  '-y, x, z'
  4  'y, -x, -z'
  5  '-x, -y, z'
  6  'x, y, -z'
  7  'y, -x, z'
  8  '-y, x, -z'
  9  'x+1/2, y+1/2, z+1/2'
  10  '-x+1/2, -y+1/2, -z+1/2'
  11  '-y+1/2, x+1/2, z+1/2'
  12  'y+1/2, -x+1/2, -z+1/2'
  13  '-x+1/2, -y+1/2, z+1/2'
  14  'x+1/2, y+1/2, -z+1/2'
  15  'y+1/2, -x+1/2, z+1/2'
  16  '-y+1/2, x+1/2, -z+1/2'
loop_
 _atom_type_symbol
 _atom_type_oxidation_number
  Sr0+  0.0
  Ni0+  0.0
  Po0+  0.0
  Te0+  0.0
  W0+  0.0
  S0+  0.0
  O0+  0.0
loop_
 _atom_site_type_symbol
 _atom_site_label
 _atom_site_symmetry_multiplicity
 _atom_site_fract_x
 _atom_site_fract_y
 _atom_site_fract_z
 _atom_site_occupancy
  Sr0+  Sr0  4  0.00000000  0.50000000  0.25000000  1.0
  Ni0+  Ni1  2  0.00000000  0.00000000  0.00000000  1.0
  W0+  W2  2  0.00000000  0.00000000  0.50000000  1.0
  S0+  S3  4  0.00000000  0.00000000  0.25500000  0.3333333333333333
  Po0+  Po4  4  0.00000000  0.00000000  0.25500000  0.25
  O0+  O5  4  0.00000000  0.00000000  0.25500000
  0.16666666666666666
  Te0+  Te6  4  0.00000000  0.00000000  0.25500000  0.25
  O0+  O7  8  0.21100000  0.27300000  0.50000000  1.0
