# generated using pymatgen
data_Cs5Li15In20At4I3Br44ClF5Ts3
_symmetry_space_group_name_H-M  'I 4/m'
_cell_length_a   17.89820000
_cell_length_b   17.89820000
_cell_length_c   11.53510000
_cell_angle_alpha   90.00000000
_cell_angle_beta   90.00000000
_cell_angle_gamma   90.00000000
_symmetry_Int_Tables_number   87
_chemical_formula_structural   Cs5Li15In20At4I3Br44ClF5Ts3
_chemical_formula_sum   'Cs5 Li15 In20 At4 I3 Br44 Cl1 F5 Ts3'
_cell_volume   3695.21810653
_cell_formula_units_Z   1
loop_
 _symmetry_equiv_pos_site_id
 _symmetry_equiv_pos_as_xyz
  1  'x, y, z'
  2  '-x, -y, -z'
  3  '-y, x, z'
  4  'y, -x, -z'
  5  '-x, -y, z'
  6  'x, y, -z'
  7  'y, -x, z'
  8  '-y, x, -z'
  9  'x+1/2, y+1/2, z+1/2'
  10  '-x+1/2, -y+1/2, -z+1/2'
  11  '-y+1/2, x+1/2, z+1/2'
  12  'y+1/2, -x+1/2, -z+1/2'
  13  '-x+1/2, -y+1/2, z+1/2'
  14  'x+1/2, y+1/2, -z+1/2'
  15  'y+1/2, -x+1/2, z+1/2'
  16  '-y+1/2, x+1/2, -z+1/2'
loop_
 _atom_site_type_symbol
 _atom_site_label
 _atom_site_symmetry_multiplicity
 _atom_site_fract_x
 _atom_site_fract_y
 _atom_site_fract_z
 _atom_site_occupancy
  Cs  Cs0  4  0.00000000  0.50000000  0.25000000  1.0
  Li+  Li1  16  0.10883000  0.21177000  0.27784000  0.9375
  Cs+  Cs2  16  0.10883000  0.21177000  0.27784000  0.0625
  In  In3  8  0.08315000  0.74699000  0.00000000  1.0
  In  In4  8  0.09250000  0.69618000  0.50000000  1.0
  In  In5  2  0.00000000  0.00000000  0.00000000  1.0
  In  In6  2  0.00000000  0.00000000  0.50000000  1.0
  Br  Br7  16  0.09354000  0.70031000  0.26560000  1.0
  Br  Br8  8  0.04866000  0.35030000  0.50000000  1.0
  Br  Br9  8  0.05570000  0.36130000  0.00000000  1.0
  Br  Br10  8  0.06610000  0.13440000  0.00000000  1.0
  Br  Br11  4  0.00000000  0.00000000  0.23000000  1.0
  Cl+  Cl12  8  0.23596000  0.74380000  0.50000000  0.125
  I+  I13  8  0.23596000  0.74380000  0.50000000  0.25
  F+  F14  8  0.23596000  0.74380000  0.50000000  0.625
  At+  At15  8  0.04820000  0.83730000  0.50000000  0.5
  I+  I16  8  0.04820000  0.83730000  0.50000000  0.125
  Ts+  Ts17  8  0.04820000  0.83730000  0.50000000  0.375
