# generated using pymatgen
data_Mg12Fe2Ru4.5Os1Hs0.5
_symmetry_space_group_name_H-M  'P 41 3 2'
_cell_length_a   6.93520000
_cell_length_b   6.93520000
_cell_length_c   6.93520000
_cell_angle_alpha   90.00000000
_cell_angle_beta   90.00000000
_cell_angle_gamma   90.00000000
_symmetry_Int_Tables_number   213
_chemical_formula_structural   Mg12Fe2Ru4.5Os1Hs0.5
_chemical_formula_sum   'Mg12 Fe2 Ru4.5 Os1 Hs0.5'
_cell_volume   333.56230774
_cell_formula_units_Z   1
loop_
 _symmetry_equiv_pos_site_id
 _symmetry_equiv_pos_as_xyz
  1  'x, y, z'
  2  '-y+1/4, x+3/4, z+1/4'
  3  '-x+1/2, -y, z+1/2'
  4  'y+1/4, -x+1/4, z+3/4'
  5  'x+1/2, -y+1/2, -z'
  6  '-y+3/4, -x+3/4, -z+3/4'
  7  '-x, y+1/2, -z+1/2'
  8  'y+3/4, x+1/4, -z+1/4'
  9  'z, x, y'
  10  'z+1/4, -y+1/4, x+3/4'
  11  'z+1/2, -x+1/2, -y'
  12  'z+3/4, y+1/4, -x+1/4'
  13  '-z, x+1/2, -y+1/2'
  14  '-z+3/4, -y+3/4, -x+3/4'
  15  '-z+1/2, -x, y+1/2'
  16  '-z+1/4, y+3/4, x+1/4'
  17  'y, z, x'
  18  'x+3/4, z+1/4, -y+1/4'
  19  '-y, z+1/2, -x+1/2'
  20  '-x+1/4, z+3/4, y+1/4'
  21  '-y+1/2, -z, x+1/2'
  22  '-x+3/4, -z+3/4, -y+3/4'
  23  'y+1/2, -z+1/2, -x'
  24  'x+1/4, -z+1/4, y+3/4'
loop_
 _atom_site_type_symbol
 _atom_site_label
 _atom_site_symmetry_multiplicity
 _atom_site_fract_x
 _atom_site_fract_y
 _atom_site_fract_z
 _atom_site_occupancy
  Mg  Mg0  12  0.04488000  0.87500000  0.70512000  1.0
  Ru+  Ru1  8  0.07378000  0.07378000  0.07378000  0.5625
  Fe+  Fe2  8  0.07378000  0.07378000  0.07378000  0.25
  Os+  Os3  8  0.07378000  0.07378000  0.07378000  0.125
  Hs+  Hs4  8  0.07378000  0.07378000  0.07378000  0.0625
