# generated using pymatgen
data_Ag8Po1.66666667Te5H48C56N32O1Lv0.33333333
_symmetry_space_group_name_H-M  'A b a 2'
_cell_length_a   12.22750000
_cell_length_b   21.78670000
_cell_length_c   7.02620000
_cell_angle_alpha   90.00000000
_cell_angle_beta   90.00000000
_cell_angle_gamma   90.00000000
_symmetry_Int_Tables_number   41
_chemical_formula_structural
Ag8Po1.66666667Te5H48C56N32O1Lv0.33333333
_chemical_formula_sum
'Ag8 Po1.66666667 Te5 H48 C56 N32 O1 Lv0.33333333'
_cell_volume   1871.75771786
_cell_formula_units_Z   1
loop_
 _symmetry_equiv_pos_site_id
 _symmetry_equiv_pos_as_xyz
  1  'x, y, z'
  2  '-x, -y, z'
  3  '-x+1/2, y, z+1/2'
  4  'x+1/2, -y, z+1/2'
  5  'x, y+1/2, z+1/2'
  6  '-x, -y+1/2, z+1/2'
  7  '-x+1/2, y+1/2, z'
  8  'x+1/2, -y+1/2, z'
loop_
 _atom_site_type_symbol
 _atom_site_label
 _atom_site_symmetry_multiplicity
 _atom_site_fract_x
 _atom_site_fract_y
 _atom_site_fract_z
 _atom_site_occupancy
  Ag  Ag0  8  0.21452200  0.25901100  0.90460000  1.0
  H  H1  8  0.02410000  0.06630000  0.28000000  1.0
  H  H2  8  0.06700000  0.16460000  0.36010000  1.0
  H  H3  8  0.09620000  0.41890000  0.18440000  1.0
  H  H4  8  0.12350000  0.12480000  0.82980000  1.0
  H  H5  8  0.19140000  0.44770000  0.06450000  1.0
  H  H6  8  0.21410000  0.42350000  0.27090000  1.0
  C  C7  8  0.03860000  0.28550000  0.54430000  1.0
  C  C8  8  0.09730000  0.07710000  0.29370000  1.0
  C  C9  8  0.12320000  0.13670000  0.33850000  1.0
  C  C10  8  0.13490000  0.00497000  0.76830000  1.0
  C  C11  8  0.16150000  0.44329000  0.19010000  1.0
  C  C12  8  0.19670000  0.11331000  0.82470000  1.0
  C  C13  8  0.22230000  0.05226000  0.78890000  1.0
  Po+  Po14  8  0.15391000  0.32111000  0.59900000
  0.20833333333333334
  Te+  Te15  8  0.15391000  0.32111000  0.59900000  0.625
  O+  O16  8  0.15391000  0.32111000  0.59900000  0.125
  Lv+  Lv17  8  0.15391000  0.32111000  0.59900000
  0.041666666666666664
  N  N18  8  0.03950000  0.02260000  0.82320000  1.0
  N  N19  8  0.04370000  0.23700000  0.01100000  1.0
  N  N20  8  0.17400000  0.03403000  0.26910000  1.0
  N  N21  8  0.22730000  0.15584000  0.35200000  1.0
