# generated using pymatgen
data_Ca16U8Po2.5C24Se3O169Lv1.5
_symmetry_space_group_name_H-M  'B b a 2'
_cell_length_a   16.69900000
_cell_length_b   17.55700000
_cell_length_c   13.69700000
_cell_angle_alpha   90.00000000
_cell_angle_beta   90.00000000
_cell_angle_gamma   90.00000000
_symmetry_Int_Tables_number   41
_chemical_formula_structural   Ca16U8Po2.5C24Se3O169Lv1.5
_chemical_formula_sum   'Ca16 U8 Po2.5 C24 Se3 O169 Lv1.5'
_cell_volume   4015.74594607
_cell_formula_units_Z   1
loop_
 _symmetry_equiv_pos_site_id
 _symmetry_equiv_pos_as_xyz
  1  'x, y, z'
  2  '-x, -y, z'
  3  'x+1/2, -y+1/2, z'
  4  '-x+1/2, y+1/2, z'
  5  'x+1/2, y, z+1/2'
  6  '-x+1/2, -y, z+1/2'
  7  'x, -y+1/2, z+1/2'
  8  '-x, y+1/2, z+1/2'
loop_
 _atom_site_type_symbol
 _atom_site_label
 _atom_site_symmetry_multiplicity
 _atom_site_fract_x
 _atom_site_fract_y
 _atom_site_fract_z
 _atom_site_occupancy
  Ca  Ca0  8  0.18589000  0.70626000  0.19102000  1
  Ca  Ca1  4  0.00000000  0.00000000  0.38804000  1
  Ca  Ca2  4  0.00000000  0.00000000  0.97458000  1
  U  U3  8  0.23820000  0.04408000  0.00000000  1
  C  C4  8  0.09580000  0.57440000  0.03310000  1
  C  C5  8  0.12490000  0.13180000  0.11020000  1
  C  C6  8  0.18050000  0.56570000  0.36240000  1
  O  O7  8  0.00730000  0.13310000  0.33610000  1
  O  O8  8  0.01010000  0.09900000  0.85140000  1
  O  O9  8  0.02240000  0.58820000  0.04140000  1
  O  O10  8  0.02390000  0.24000000  0.94910000  1
  O  O11  8  0.04130000  0.71140000  0.17040000  1
  O  O12  8  0.06250000  0.58980000  0.59370000  1
  O  O13  8  0.07500000  0.17180000  0.15690000  1
  O  O14  8  0.10260000  0.00150000  0.26290000  1
  O  O15  8  0.10340000  0.08090000  0.04870000  1
  O  O16  8  0.12070000  0.52070000  0.97400000  1
  O  O17  8  0.13530000  0.52240000  0.41460000  1
  O  O18  8  0.14670000  0.69000000  0.79430000  1
  O  O19  8  0.15100000  0.60810000  0.08240000  1
  O  O20  8  0.15410000  0.61650000  0.30820000  1
  O  O21  8  0.17390000  0.71570000  0.54180000  1
  O  O22  8  0.18450000  0.19210000  0.44640000  1
  O  O23  8  0.18940000  0.23100000  0.73880000  1
  O  O24  8  0.20170000  0.13880000  0.12160000  1
  O  O25  8  0.23760000  0.11580000  0.90880000  1
  O  O26  8  0.23920000  0.52790000  0.59190000  1
  O  O27  8  0.24330000  0.05250000  0.37310000  1
  Se+  Se28  8  0.10930000  0.08260000  0.68460000  0.375
  Po+  Po29  8  0.10930000  0.08260000  0.68460000  0.3125
  O+  O30  8  0.10930000  0.08260000  0.68460000  0.125
  Lv+  Lv31  8  0.10930000  0.08260000  0.68460000  0.1875
