# generated using pymatgen
data_Fe4Si7B8Sb2.5As1.5P3.5H96Pb1C56N16.5
_symmetry_space_group_name_H-M  'A e a 2'
_cell_length_a   14.35530000
_cell_length_b   15.23890000
_cell_length_c   8.85430000
_cell_angle_alpha   90.00000000
_cell_angle_beta   90.00000000
_cell_angle_gamma   90.00000000
_symmetry_Int_Tables_number   41
_chemical_formula_structural   Fe4Si7B8Sb2.5As1.5P3.5H96Pb1C56N16.5
_chemical_formula_sum
'Fe4 Si7 B8 Sb2.5 As1.5 P3.5 H96 Pb1 C56 N16.5'
_cell_volume   1936.95764697
_cell_formula_units_Z   1
loop_
 _symmetry_equiv_pos_site_id
 _symmetry_equiv_pos_as_xyz
  1  'x, y, z'
  2  '-x, -y, z'
  3  '-x+1/2, y+1/2, z'
  4  'x+1/2, -y+1/2, z'
  5  'x, y+1/2, z+1/2'
  6  '-x, -y+1/2, z+1/2'
  7  '-x+1/2, y, z+1/2'
  8  'x+1/2, -y, z+1/2'
loop_
 _atom_site_type_symbol
 _atom_site_label
 _atom_site_symmetry_multiplicity
 _atom_site_fract_x
 _atom_site_fract_y
 _atom_site_fract_z
 _atom_site_occupancy
  Fe  Fe0  4  0.00000000  0.00000000  0.23891000  1.0
  Si+  Si1  8  0.16970000  0.38900000  0.69930000  0.875
  Pb+  Pb2  8  0.16970000  0.38900000  0.69930000  0.125
  B  B3  8  0.07560000  0.21300000  0.88070000  1.0
  Sb+  Sb4  8  0.13132000  0.46223000  0.75660000  0.3125
  P+  P5  8  0.13132000  0.46223000  0.75660000  0.4375
  N+  N6  8  0.13132000  0.46223000  0.75660000  0.0625
  As+  As7  8  0.13132000  0.46223000  0.75660000  0.1875
  H  H8  8  0.01000000  0.13220000  0.39900000  1.0
  H  H9  8  0.02010000  0.22900000  0.82250000  1.0
  H  H10  8  0.03370000  0.07260000  0.63430000  1.0
  H  H11  8  0.06810000  0.43210000  0.06010000  1.0
  H  H12  8  0.09940000  0.26480000  0.93340000  1.0
  H  H13  8  0.12100000  0.40530000  0.33330000  1.0
  H  H14  8  0.12350000  0.19030000  0.81230000  1.0
  H  H15  8  0.13190000  0.35150000  0.63930000  1.0
  H  H16  8  0.15380000  0.14610000  0.33750000  1.0
  H  H17  8  0.16040000  0.10830000  0.50600000  1.0
  H  H18  8  0.18710000  0.03170000  0.93790000  1.0
  H  H19  8  0.21320000  0.31400000  0.17980000  1.0
  C  C20  8  0.00250000  0.45110000  0.04830000  1.0
  C  C21  8  0.04930000  0.13990000  0.00010000  1.0
  C  C22  8  0.13790000  0.09550000  0.40260000  1.0
  C  C23  8  0.18420000  0.41960000  0.31380000  1.0
  C  C24  8  0.18550000  0.01450000  0.34370000  1.0
  C  C25  8  0.22320000  0.49440000  0.37480000  1.0
  C  C26  8  0.23840000  0.36570000  0.22370000  1.0
  N  N27  8  0.03110000  0.08680000  0.08710000  1.0
  N  N28  8  0.03540000  0.08330000  0.40500000  1.0
