# generated using pymatgen
data_Co2Si9Sn3Ge3C41(N2Cl)4
_symmetry_space_group_name_H-M  'P n n n :2'
_cell_length_a   11.66200000
_cell_length_b   11.66400000
_cell_length_c   10.60800000
_cell_angle_alpha   90.00000000
_cell_angle_beta   90.00000000
_cell_angle_gamma   90.00000000
_symmetry_Int_Tables_number   48
_chemical_formula_structural   Co2Si9Sn3Ge3C41(N2Cl)4
_chemical_formula_sum   'Co2 Si9 Sn3 Ge3 C41 N8 Cl4'
_cell_volume   1442.95922534
_cell_formula_units_Z   1
loop_
 _symmetry_equiv_pos_site_id
 _symmetry_equiv_pos_as_xyz
  1  'x, y, z'
  2  '-x+1/2, y, -z+1/2'
  3  '-x+1/2, -y+1/2, z'
  4  'x, -y+1/2, -z+1/2'
  5  '-x, -y, -z'
  6  'x+1/2, -y, z+1/2'
  7  'x+1/2, y+1/2, -z'
  8  '-x, y+1/2, z+1/2'
loop_
 _atom_site_type_symbol
 _atom_site_label
 _atom_site_symmetry_multiplicity
 _atom_site_fract_x
 _atom_site_fract_y
 _atom_site_fract_z
 _atom_site_occupancy
  Co  Co0  2  0.25000000  0.25000000  0.25000000  1.0
  Si+  Si1  8  0.16170000  0.55760000  0.58430000  0.875
  Ge+  Ge2  8  0.16170000  0.55760000  0.58430000  0.125
  Sn+  Sn3  8  0.02670000  0.12330000  0.17320000  0.375
  Si+  Si4  8  0.02670000  0.12330000  0.17320000  0.25
  C+  C5  8  0.02670000  0.12330000  0.17320000  0.125
  Ge+  Ge6  8  0.02670000  0.12330000  0.17320000  0.25
  C  C7  8  0.04310000  0.56080000  0.17090000  1.0
  C  C8  8  0.05050000  0.05040000  0.75000000  1.0
  C  C9  8  0.05780000  0.66120000  0.08430000  1.0
  C  C10  8  0.06060000  0.54330000  0.67110000  1.0
  C  C11  8  0.12380000  0.02610000  0.32650000  1.0
  N  N12  8  0.11670000  0.11820000  0.25040000  1.0
  Cl  Cl13  4  0.25000000  0.25000000  0.01860000  1.0
