# generated using pymatgen
data_Gd12Bi6SbAs4P4NMc4O48
_symmetry_space_group_name_H-M  'I -4 3 m'
_cell_length_a   10.85570000
_cell_length_b   10.85570000
_cell_length_c   10.85570000
_cell_angle_alpha   90.00000000
_cell_angle_beta   90.00000000
_cell_angle_gamma   90.00000000
_symmetry_Int_Tables_number   217
_chemical_formula_structural   Gd12Bi6SbAs4P4NMc4O48
_chemical_formula_sum   'Gd12 Bi6 Sb1 As4 P4 N1 Mc4 O48'
_cell_volume   1279.30323748
_cell_formula_units_Z   1
loop_
 _symmetry_equiv_pos_site_id
 _symmetry_equiv_pos_as_xyz
  1  'x, y, z'
  2  'y, -x, -z'
  3  '-x, -y, z'
  4  '-y, x, -z'
  5  'x, -y, -z'
  6  'y, x, z'
  7  '-x, y, -z'
  8  '-y, -x, z'
  9  'z, x, y'
  10  '-z, y, -x'
  11  'z, -x, -y'
  12  '-z, -y, x'
  13  '-z, x, -y'
  14  'z, y, x'
  15  '-z, -x, y'
  16  'z, -y, -x'
  17  'y, z, x'
  18  '-x, -z, y'
  19  '-y, z, -x'
  20  'x, -z, -y'
  21  '-y, -z, x'
  22  'x, z, y'
  23  'y, -z, -x'
  24  '-x, z, -y'
  25  'x+1/2, y+1/2, z+1/2'
  26  'y+1/2, -x+1/2, -z+1/2'
  27  '-x+1/2, -y+1/2, z+1/2'
  28  '-y+1/2, x+1/2, -z+1/2'
  29  'x+1/2, -y+1/2, -z+1/2'
  30  'y+1/2, x+1/2, z+1/2'
  31  '-x+1/2, y+1/2, -z+1/2'
  32  '-y+1/2, -x+1/2, z+1/2'
  33  'z+1/2, x+1/2, y+1/2'
  34  '-z+1/2, y+1/2, -x+1/2'
  35  'z+1/2, -x+1/2, -y+1/2'
  36  '-z+1/2, -y+1/2, x+1/2'
  37  '-z+1/2, x+1/2, -y+1/2'
  38  'z+1/2, y+1/2, x+1/2'
  39  '-z+1/2, -x+1/2, y+1/2'
  40  'z+1/2, -y+1/2, -x+1/2'
  41  'y+1/2, z+1/2, x+1/2'
  42  '-x+1/2, -z+1/2, y+1/2'
  43  '-y+1/2, z+1/2, -x+1/2'
  44  'x+1/2, -z+1/2, -y+1/2'
  45  '-y+1/2, -z+1/2, x+1/2'
  46  'x+1/2, z+1/2, y+1/2'
  47  'y+1/2, -z+1/2, -x+1/2'
  48  '-x+1/2, z+1/2, -y+1/2'
loop_
 _atom_type_symbol
 _atom_type_oxidation_number
  Gd0+  0.0
  Bi0+  0.0
  Sb0+  0.0
  As0+  0.0
  P0+  0.0
  N0+  0.0
  O0+  0.0
  Mc0+  0.0
loop_
 _atom_site_type_symbol
 _atom_site_label
 _atom_site_symmetry_multiplicity
 _atom_site_fract_x
 _atom_site_fract_y
 _atom_site_fract_z
 _atom_site_occupancy
  Gd0+  Gd0  12  0.00000000  0.25000000  0.50000000  1.0
  As0+  As1  12  0.00000000  0.00000000  0.28060000
  0.3333333333333333
  N0+  N2  12  0.00000000  0.00000000  0.28060000
  0.08333333333333333
  Bi0+  Bi3  12  0.00000000  0.00000000  0.28060000  0.5
  P0+  P4  12  0.00000000  0.00000000  0.28060000
  0.08333333333333333
  Mc0+  Mc5  8  0.24300000  0.24300000  0.24300000  0.5
  P0+  P6  8  0.24300000  0.24300000  0.24300000  0.375
  Sb0+  Sb7  8  0.24300000  0.24300000  0.24300000  0.125
  O0+  O8  24  0.09870000  0.09870000  0.39210000  1.0
  O0+  O9  24  0.13990000  0.13990000  0.66180000  1.0
