# generated using pymatgen
data_Zr0.16666667Rf0.66666667Hf0.16666667Ti1Te1Se2O1
_symmetry_space_group_name_H-M  'P 1 2/m 1'
_cell_length_a   6.10000000
_cell_length_b   3.66900000
_cell_length_c   6.20000000
_cell_angle_alpha   90.00000000
_cell_angle_beta   90.00000000
_cell_angle_gamma   90.00000000
_symmetry_Int_Tables_number   10
_chemical_formula_structural
Zr0.16666667Rf0.66666667Hf0.16666667Ti1Te1Se2O1
_chemical_formula_sum
'Zr0.16666667 Rf0.66666667 Hf0.16666667 Ti1 Te1 Se2 O1'
_cell_volume   138.76158000
_cell_formula_units_Z   1
loop_
 _symmetry_equiv_pos_site_id
 _symmetry_equiv_pos_as_xyz
  1  'x, y, z'
  2  '-x, -y, -z'
  3  '-x, y, -z'
  4  'x, -y, z'
loop_
 _atom_type_symbol
 _atom_type_oxidation_number
  Hf0+  0.0
  Zr0+  0.0
  Ti0+  0.0
  Te0+  0.0
  Se0+  0.0
  O0+  0.0
  Rf0+  0.0
loop_
 _atom_site_type_symbol
 _atom_site_label
 _atom_site_symmetry_multiplicity
 _atom_site_fract_x
 _atom_site_fract_y
 _atom_site_fract_z
 _atom_site_occupancy
  Zr0+  Zr0  1  0.00000000  0.50000000  0.50000000
  0.16666666666666666
  Rf0+  Rf1  1  0.00000000  0.50000000  0.50000000
  0.6666666666666666
  Hf0+  Hf2  1  0.00000000  0.50000000  0.50000000
  0.16666666666666666
  Ti0+  Ti3  1  0.00000000  0.00000000  0.00000000  1.0
  Se0+  Se4  2  0.25000000  0.50000000  0.83000000  1.0
  Te0+  Te5  2  0.25000000  0.00000000  0.33000000  0.5
  O0+  O6  2  0.25000000  0.00000000  0.33000000  0.5
