# generated using pymatgen
data_Cn0.25Zn0.25Cd6.25Hg0.25I12.5Br0.5F0.5Ts0.5
_symmetry_space_group_name_H-M  'P 3 m 1'
_cell_length_a   4.24000000
_cell_length_b   4.24000000
_cell_length_c   47.84000000
_cell_angle_alpha   90.00000000
_cell_angle_beta   90.00000000
_cell_angle_gamma   120.00000000
_symmetry_Int_Tables_number   156
_chemical_formula_structural
Cn0.25Zn0.25Cd6.25Hg0.25I12.5Br0.5F0.5Ts0.5
_chemical_formula_sum
'Cn0.25 Zn0.25 Cd6.25 Hg0.25 I12.5 Br0.5 F0.5 Ts0.5'
_cell_volume   744.82374903
_cell_formula_units_Z   1
loop_
 _symmetry_equiv_pos_site_id
 _symmetry_equiv_pos_as_xyz
  1  'x, y, z'
  2  '-y, x-y, z'
  3  '-x+y, -x, z'
  4  '-y, -x, z'
  5  '-x+y, y, z'
  6  'x, x-y, z'
loop_
 _atom_type_symbol
 _atom_type_oxidation_number
  Zn0+  0.0
  Cd0+  0.0
  Hg0+  0.0
  I0+  0.0
  Br0+  0.0
  F0+  0.0
  Cn0+  0.0
  Ts0+  0.0
loop_
 _atom_site_type_symbol
 _atom_site_label
 _atom_site_symmetry_multiplicity
 _atom_site_fract_x
 _atom_site_fract_y
 _atom_site_fract_z
 _atom_site_occupancy
  Cn0+  Cn0  1  0.00000000  0.00000000  0.17860000  0.25
  Hg0+  Hg1  1  0.00000000  0.00000000  0.17860000  0.25
  Cd0+  Cd2  1  0.00000000  0.00000000  0.17860000  0.25
  Zn0+  Zn3  1  0.00000000  0.00000000  0.17860000  0.25
  Cd0+  Cd4  1  0.00000000  0.00000000  0.60710000  1.0
  Cd0+  Cd5  1  0.00000000  0.00000000  0.75000000  1.0
  Cd0+  Cd6  1  0.33333333  0.66666667  0.03570000  1.0
  Cd0+  Cd7  1  0.33333333  0.66666667  0.32140000  1.0
  Cd0+  Cd8  1  0.33333333  0.66666667  0.46430000  1.0
  Cd0+  Cd9  1  0.33333333  0.66666667  0.89290000  1.0
  I0+  I10  1  0.00000000  0.00000000  0.00000000  1.0
  I0+  I11  1  0.00000000  0.00000000  0.28570000  1.0
  I0+  I12  1  0.00000000  0.00000000  0.42860000  1.0
  I0+  I13  1  0.33333333  0.66666667  0.14290000  1.0
  I0+  I14  1  0.33333333  0.66666667  0.57140000  1.0
  I0+  I15  1  0.33333333  0.66666667  0.71430000  1.0
  I0+  I16  1  0.66666667  0.33333333  0.07140000  1.0
  I0+  I17  1  0.66666667  0.33333333  0.21430000  1.0
  I0+  I18  1  0.66666667  0.33333333  0.35710000  1.0
  I0+  I19  1  0.66666667  0.33333333  0.50000000  1.0
  I0+  I20  1  0.66666667  0.33333333  0.64290000  1.0
  I0+  I21  1  0.66666667  0.33333333  0.78570000  1.0
  Br0+  Br22  1  0.00000000  0.00000000  0.85710000  0.5
  F0+  F23  1  0.00000000  0.00000000  0.85710000  0.25
  I0+  I24  1  0.00000000  0.00000000  0.85710000  0.25
  I0+  I25  1  0.66666667  0.33333333  0.92860000  0.25
  F0+  F26  1  0.66666667  0.33333333  0.92860000  0.25
  Ts0+  Ts27  1  0.66666667  0.33333333  0.92860000  0.5
