# generated using pymatgen
data_Fr0.41666667Ba0.83333333Na0.08333333Ca0.16666667In0.75Nh0.25Sn1H0.5
_symmetry_space_group_name_H-M  'P 3 m 1'
_cell_length_a   4.48290000
_cell_length_b   4.48290000
_cell_length_c   5.19120000
_cell_angle_alpha   90.00000000
_cell_angle_beta   90.00000000
_cell_angle_gamma   120.00000000
_symmetry_Int_Tables_number   156
_chemical_formula_structural
Fr0.41666667Ba0.83333333Na0.08333333Ca0.16666667In0.75Nh0.25Sn1H0.5
_chemical_formula_sum
;
Fr0.41666667 Ba0.83333333 Na0.08333333 Ca0.16666667 In0.75 Nh0.25 Sn1
H0.5
;
_cell_volume   90.34757395
_cell_formula_units_Z   1
loop_
 _symmetry_equiv_pos_site_id
 _symmetry_equiv_pos_as_xyz
  1  'x, y, z'
  2  '-y, x-y, z'
  3  '-x+y, -x, z'
  4  '-y, -x, z'
  5  '-x+y, y, z'
  6  'x, x-y, z'
loop_
 _atom_site_type_symbol
 _atom_site_label
 _atom_site_symmetry_multiplicity
 _atom_site_fract_x
 _atom_site_fract_y
 _atom_site_fract_z
 _atom_site_occupancy
  Ba+  Ba0  1  0.00000000  0.00000000  0.00000000
  0.8333333333333334
  Ca+  Ca1  1  0.00000000  0.00000000  0.00000000
  0.16666666666666666
  In+  In2  1  0.66666667  0.33333333  0.60060000  0.75
  Nh+  Nh3  1  0.66666667  0.33333333  0.60060000  0.25
  Na+  Na4  1  0.66666667  0.33333333  0.93660000
  0.08333333333333333
  H+  H5  1  0.66666667  0.33333333  0.93660000  0.5
  Fr+  Fr6  1  0.66666667  0.33333333  0.93660000
  0.4166666666666667
  Sn  Sn7  1  0.33333333  0.66666667  0.45210000  1.0
