# generated using pymatgen
data_Cd9.44444444Hg0.55555556At0.11111111I18Br0.66666667Cl0.44444444Ts0.7777777
_symmetry_space_group_name_H-M  'P 3 m 1'
_cell_length_a   4.24000000
_cell_length_b   4.24000000
_cell_length_c   68.34999000
_cell_angle_alpha   90.00000000
_cell_angle_beta   90.00000000
_cell_angle_gamma   120.00000000
_symmetry_Int_Tables_number   156
_chemical_formula_structural
;
Cd9.44444444Hg0.55555556At0.11111111I18Br0.66666667Cl0.44444444Ts0.777
77778
;
_chemical_formula_sum
;
Cd9.44444444 Hg0.55555556 At0.11111111 I18 Br0.66666667 Cl0.44444444
Ts0.77777778
;
_cell_volume   1064.14497905
_cell_formula_units_Z   1
loop_
 _symmetry_equiv_pos_site_id
 _symmetry_equiv_pos_as_xyz
  1  'x, y, z'
  2  '-y, x-y, z'
  3  '-x+y, -x, z'
  4  '-y, -x, z'
  5  '-x+y, y, z'
  6  'x, x-y, z'
loop_
 _atom_type_symbol
 _atom_type_oxidation_number
  Cd0+  0.0
  Hg0+  0.0
  At0+  0.0
  I0+  0.0
  Br0+  0.0
  Cl0+  0.0
  Ts0+  0.0
loop_
 _atom_site_type_symbol
 _atom_site_label
 _atom_site_symmetry_multiplicity
 _atom_site_fract_x
 _atom_site_fract_y
 _atom_site_fract_z
 _atom_site_occupancy
  Cd0+  Cd0  1  0.00000000  0.00000000  0.12500000  1.0
  Cd0+  Cd1  1  0.00000000  0.00000000  0.52500000  1.0
  Cd0+  Cd2  1  0.66666667  0.33333333  0.02500000  1.0
  Cd0+  Cd3  1  0.66666667  0.33333333  0.22500000  1.0
  Cd0+  Cd4  1  0.66666667  0.33333333  0.32500000  1.0
  Cd0+  Cd5  1  0.66666667  0.33333333  0.62500000  1.0
  Cd0+  Cd6  1  0.66666667  0.33333333  0.72500000  1.0
  Cd0+  Cd7  1  0.66666667  0.33333333  0.82500000  1.0
  Cd0+  Cd8  1  0.66666667  0.33333333  0.92500000  1.0
  Hg0+  Hg9  1  0.66666667  0.33333333  0.42500000
  0.5555555555555556
  Cd0+  Cd10  1  0.66666667  0.33333333  0.42500000
  0.4444444444444444
  I0+  I11  1  0.00000000  0.00000000  0.00000000  1.0
  I0+  I12  1  0.00000000  0.00000000  0.20000000  1.0
  I0+  I13  1  0.00000000  0.00000000  0.30000000  1.0
  I0+  I14  1  0.00000000  0.00000000  0.40000000  1.0
  I0+  I15  1  0.00000000  0.00000000  0.60000000  1.0
  I0+  I16  1  0.00000000  0.00000000  0.70000000  1.0
  I0+  I17  1  0.00000000  0.00000000  0.80000000  1.0
  I0+  I18  1  0.33333333  0.66666667  0.05000000  1.0
  I0+  I19  1  0.33333333  0.66666667  0.15000000  1.0
  I0+  I20  1  0.33333333  0.66666667  0.25000000  1.0
  I0+  I21  1  0.33333333  0.66666667  0.35000000  1.0
  I0+  I22  1  0.33333333  0.66666667  0.45000000  1.0
  I0+  I23  1  0.33333333  0.66666667  0.55000000  1.0
  I0+  I24  1  0.33333333  0.66666667  0.65000000  1.0
  I0+  I25  1  0.33333333  0.66666667  0.75000000  1.0
  I0+  I26  1  0.33333333  0.66666667  0.95000000  1.0
  I0+  I27  1  0.66666667  0.33333333  0.10000000  1.0
  Br0+  Br28  1  0.66666667  0.33333333  0.50000000
  0.4444444444444444
  Cl0+  Cl29  1  0.66666667  0.33333333  0.50000000
  0.4444444444444444
  At0+  At30  1  0.66666667  0.33333333  0.50000000
  0.1111111111111111
  Br0+  Br31  1  0.00000000  0.00000000  0.90000000
  0.2222222222222222
  Ts0+  Ts32  1  0.00000000  0.00000000  0.90000000
  0.7777777777777778
  I0+  I33  1  0.33333333  0.66666667  0.85000000  1.0
