# generated using pymatgen
data_Si0.5Sn0.16666667Ge0.66666667Pb1.5C0.16666667I5.5Br0.16666667Cl0.33333333
_symmetry_space_group_name_H-M  'P 3 m 1'
_cell_length_a   4.55700000
_cell_length_b   4.55700000
_cell_length_c   20.93700000
_cell_angle_alpha   90.00000000
_cell_angle_beta   90.00000000
_cell_angle_gamma   120.00000000
_symmetry_Int_Tables_number   156
_chemical_formula_structural
;
Si0.5Sn0.16666667Ge0.66666667Pb1.5C0.16666667I5.5Br0.16666667Cl0.33333
333
;
_chemical_formula_sum
;
Si0.5 Sn0.16666667 Ge0.66666667 Pb1.5 C0.16666667 I5.5 Br0.16666667
Cl0.33333333
;
_cell_volume   376.53308443
_cell_formula_units_Z   1
loop_
 _symmetry_equiv_pos_site_id
 _symmetry_equiv_pos_as_xyz
  1  'x, y, z'
  2  '-y, x-y, z'
  3  '-x+y, -x, z'
  4  '-y, -x, z'
  5  '-x+y, y, z'
  6  'x, x-y, z'
loop_
 _atom_site_type_symbol
 _atom_site_label
 _atom_site_symmetry_multiplicity
 _atom_site_fract_x
 _atom_site_fract_y
 _atom_site_fract_z
 _atom_site_occupancy
  Ge+  Ge0  1  0.00000000  0.00000000  0.33333333
  0.6666666666666666
  Si+  Si1  1  0.00000000  0.00000000  0.33333333
  0.3333333333333333
  Pb+  Pb2  1  0.66666667  0.33333333  0.66666667  0.5
  Sn+  Sn3  1  0.66666667  0.33333333  0.66666667
  0.16666666666666666
  Si+  Si4  1  0.66666667  0.33333333  0.66666667
  0.16666666666666666
  C+  C5  1  0.66666667  0.33333333  0.66666667  0.16666666666666666
  Pb  Pb6  1  0.00000000  0.00000000  0.00000000  1
  I  I7  1  0.33333333  0.66666667  0.08800000  1
  I  I8  1  0.33333333  0.66666667  0.42100000  1
  I  I9  1  0.33333333  0.66666667  0.75500000  1
  I  I10  1  0.66666667  0.33333333  0.24500000  1
  I  I11  1  0.66666667  0.33333333  0.91200000  1
  Br+  Br12  1  0.00000000  0.00000000  0.57900000
  0.16666666666666666
  Cl+  Cl13  1  0.00000000  0.00000000  0.57900000
  0.3333333333333333
  I+  I14  1  0.00000000  0.00000000  0.57900000  0.5
