# generated using pymatgen
data_Na16Po1.5Ge16S25.5Lv11O2
_symmetry_space_group_name_H-M  'C m c m'
_cell_length_a   12.84700000
_cell_length_b   12.90100000
_cell_length_c   10.47600000
_cell_angle_alpha   90.00000000
_cell_angle_beta   90.00000000
_cell_angle_gamma   90.00000000
_symmetry_Int_Tables_number   63
_chemical_formula_structural   Na16Po1.5Ge16S25.5Lv11O2
_chemical_formula_sum   'Na16 Po1.5 Ge16 S25.5 Lv11 O2'
_cell_volume   1736.28330397
_cell_formula_units_Z   1
loop_
 _symmetry_equiv_pos_site_id
 _symmetry_equiv_pos_as_xyz
  1  'x, y, z'
  2  '-x, -y, -z'
  3  '-x, -y, z+1/2'
  4  'x, y, -z+1/2'
  5  'x, -y, -z'
  6  '-x, y, z'
  7  '-x, y, -z+1/2'
  8  'x, -y, z+1/2'
  9  'x+1/2, y+1/2, z'
  10  '-x+1/2, -y+1/2, -z'
  11  '-x+1/2, -y+1/2, z+1/2'
  12  'x+1/2, y+1/2, -z+1/2'
  13  'x+1/2, -y+1/2, -z'
  14  '-x+1/2, y+1/2, z'
  15  '-x+1/2, y+1/2, -z+1/2'
  16  'x+1/2, -y+1/2, z+1/2'
loop_
 _atom_type_symbol
 _atom_type_oxidation_number
  Na0+  0.0
  Po0+  0.0
  Ge0+  0.0
  S0+  0.0
  O0+  0.0
  Lv0+  0.0
loop_
 _atom_site_type_symbol
 _atom_site_label
 _atom_site_symmetry_multiplicity
 _atom_site_fract_x
 _atom_site_fract_y
 _atom_site_fract_z
 _atom_site_occupancy
  Na0+  Na0  8  0.14890000  0.00000000  0.00000000  1.0
  Na0+  Na1  8  0.16420000  0.25280000  0.75000000  1.0
  Ge0+  Ge2  8  0.00000000  0.25560000  0.08180000  1.0
  Ge0+  Ge3  8  0.13780000  0.45430000  0.25000000  1.0
  S0+  S4  16  0.14430000  0.35300000  0.07700000  1.0
  Lv0+  Lv5  8  0.22550000  0.04860000  0.25000000  0.875
  O0+  O6  8  0.22550000  0.04860000  0.25000000  0.125
  S0+  S7  4  0.00000000  0.15490000  0.25000000  1.0
  Lv0+  Lv8  8  0.00000000  0.15710000  0.58270000  0.5
  O0+  O9  8  0.00000000  0.15710000  0.58270000  0.125
  S0+  S10  8  0.00000000  0.15710000  0.58270000  0.1875
  Po0+  Po11  8  0.00000000  0.15710000  0.58270000  0.1875
  S0+  S12  4  0.00000000  0.44350000  0.75000000  1.0
