# generated using pymatgen
data_Co8H64C81Fl3.5Ge3Pb0.5N48O24
_symmetry_space_group_name_H-M  'C m c m'
_cell_length_a   21.96860000
_cell_length_b   6.80170000
_cell_length_c   20.02380000
_cell_angle_alpha   90.00000000
_cell_angle_beta   90.00000000
_cell_angle_gamma   90.00000000
_symmetry_Int_Tables_number   63
_chemical_formula_structural   Co8H64C81Fl3.5Ge3Pb0.5N48O24
_chemical_formula_sum   'Co8 H64 C81 Fl3.5 Ge3 Pb0.5 N48 O24'
_cell_volume   2992.03281947
_cell_formula_units_Z   1
loop_
 _symmetry_equiv_pos_site_id
 _symmetry_equiv_pos_as_xyz
  1  'x, y, z'
  2  '-x, -y, -z'
  3  '-x, -y, z+1/2'
  4  'x, y, -z+1/2'
  5  'x, -y, -z'
  6  '-x, y, z'
  7  '-x, y, -z+1/2'
  8  'x, -y, z+1/2'
  9  'x+1/2, y+1/2, z'
  10  '-x+1/2, -y+1/2, -z'
  11  '-x+1/2, -y+1/2, z+1/2'
  12  'x+1/2, y+1/2, -z+1/2'
  13  'x+1/2, -y+1/2, -z'
  14  '-x+1/2, y+1/2, z'
  15  '-x+1/2, y+1/2, -z+1/2'
  16  'x+1/2, -y+1/2, z+1/2'
loop_
 _atom_site_type_symbol
 _atom_site_label
 _atom_site_symmetry_multiplicity
 _atom_site_fract_x
 _atom_site_fract_y
 _atom_site_fract_z
 _atom_site_occupancy
  Co  Co0  8  0.24977000  0.01270000  0.75000000  1.0
  H  H1  16  0.09160000  0.24990000  0.50460000  1.0
  H  H2  16  0.12940000  0.04910000  0.63890000  1.0
  H  H3  16  0.13190000  0.47310000  0.63780000  1.0
  H  H4  8  0.00000000  0.22940000  0.16900000  1.0
  H  H5  8  0.16580000  0.24700000  0.75000000  1.0
  C  C6  16  0.05372000  0.24020000  0.08730000  1.0
  C  C7  16  0.05475000  0.24770000  0.01820000  1.0
  C  C8  16  0.14116000  0.08070000  0.14570000  1.0
  C  C9  16  0.14255000  0.39640000  0.14520000  1.0
  C  C10  8  0.00000000  0.23550000  0.12260000  1.0
  C  C11  8  0.00000000  0.25210000  0.51680000  1.0
  Fl+  Fl12  8  0.00000000  0.25850000  0.59250000  0.4375
  Ge+  Ge13  8  0.00000000  0.25850000  0.59250000  0.375
  Pb+  Pb14  8  0.00000000  0.25850000  0.59250000  0.0625
  C+  C15  8  0.00000000  0.25850000  0.59250000  0.125
  N  N16  16  0.11067000  0.23940000  0.12319000  1.0
  N  N17  16  0.18969000  0.13630000  0.17843000  1.0
  N  N18  16  0.19043000  0.33920000  0.17844000  1.0
  O  O19  16  0.05078000  0.26180000  0.62041000  1.0
  O  O20  8  0.20274000  0.26270000  0.75000000  1.0
