# generated using pymatgen
data_Mn20Si8.25Sn1.5Ge2Pb0.25
_symmetry_space_group_name_H-M  'C c m m'
_cell_length_a   6.89900000
_cell_length_b   11.90799000
_cell_length_c   4.79730000
_cell_angle_alpha   90.00000000
_cell_angle_beta   90.00000000
_cell_angle_gamma   90.00000000
_symmetry_Int_Tables_number   63
_chemical_formula_structural   Mn20Si8.25Sn1.5Ge2Pb0.25
_chemical_formula_sum   'Mn20 Si8.25 Sn1.5 Ge2 Pb0.25'
_cell_volume   394.11365675
_cell_formula_units_Z   1
loop_
 _symmetry_equiv_pos_site_id
 _symmetry_equiv_pos_as_xyz
  1  'x, y, z'
  2  '-x, -y, -z'
  3  '-x, -y, z+1/2'
  4  'x, y, -z+1/2'
  5  '-x, y, -z'
  6  'x, -y, z'
  7  'x, -y, -z+1/2'
  8  '-x, y, z+1/2'
  9  'x+1/2, y+1/2, z'
  10  '-x+1/2, -y+1/2, -z'
  11  '-x+1/2, -y+1/2, z+1/2'
  12  'x+1/2, y+1/2, -z+1/2'
  13  '-x+1/2, y+1/2, -z'
  14  'x+1/2, -y+1/2, z'
  15  'x+1/2, -y+1/2, -z+1/2'
  16  '-x+1/2, y+1/2, z+1/2'
loop_
 _atom_site_type_symbol
 _atom_site_label
 _atom_site_symmetry_multiplicity
 _atom_site_fract_x
 _atom_site_fract_y
 _atom_site_fract_z
 _atom_site_occupancy
  Mn  Mn0  8  0.00000000  0.33275000  0.00000000  1.0
  Mn  Mn1  8  0.11720000  0.11746000  0.25000000  1.0
  Mn  Mn2  4  0.23700000  0.00000000  0.75000000  1.0
  Si  Si3  8  0.20056000  0.19988000  0.75000000  1.0
  Ge+  Ge4  4  0.09890000  0.50000000  0.75000000  0.5
  Sn+  Sn5  4  0.09890000  0.50000000  0.75000000  0.375
  Si+  Si6  4  0.09890000  0.50000000  0.75000000  0.0625
  Pb+  Pb7  4  0.09890000  0.50000000  0.75000000  0.0625
