# generated using pymatgen
data_Tl2Sb6At10Cl1.5F24.5
_symmetry_space_group_name_H-M  'P -3'
_cell_length_a   9.40800000
_cell_length_b   9.40800000
_cell_length_c   8.59700000
_cell_angle_alpha   90.00000000
_cell_angle_beta   90.00000000
_cell_angle_gamma   120.00000000
_symmetry_Int_Tables_number   147
_chemical_formula_structural   Tl2Sb6At10Cl1.5F24.5
_chemical_formula_sum   'Tl2 Sb6 At10 Cl1.5 F24.5'
_cell_volume   658.97991186
_cell_formula_units_Z   1
loop_
 _symmetry_equiv_pos_site_id
 _symmetry_equiv_pos_as_xyz
  1  'x, y, z'
  2  '-x, -y, -z'
  3  '-y, x-y, z'
  4  'y, -x+y, -z'
  5  '-x+y, -x, z'
  6  'x-y, x, -z'
loop_
 _atom_site_type_symbol
 _atom_site_label
 _atom_site_symmetry_multiplicity
 _atom_site_fract_x
 _atom_site_fract_y
 _atom_site_fract_z
 _atom_site_occupancy
  Tl  Tl0  2  0.33333333  0.66666667  0.57266000  1.0
  Sb  Sb1  6  0.01932000  0.65568000  0.24005000  1.0
  At+  At2  6  0.10910000  0.32000000  0.90570000
  0.9166666666666666
  F+  F3  6  0.10910000  0.32000000  0.90570000  0.08333333333333333
  At+  At4  6  0.12020000  0.35650000  0.59540000  0.75
  Cl+  Cl5  6  0.12020000  0.35650000  0.59540000  0.25
  F  F6  6  0.12500000  0.29040000  0.26680000  1.0
  F  F7  6  0.13410000  0.58230000  0.74560000  1.0
  F  F8  6  0.13790000  0.61010000  0.10020000  1.0
  F  F9  6  0.13880000  0.61010000  0.40360000  1.0
