# generated using pymatgen
data_Fr0.5Rb6.5Na2H54C45Br9
_symmetry_space_group_name_H-M  'R 3 :H'
_cell_length_a   16.56480000
_cell_length_b   16.56480000
_cell_length_c   5.33510000
_cell_angle_alpha   90.00000000
_cell_angle_beta   90.00000000
_cell_angle_gamma   120.00000000
_symmetry_Int_Tables_number   146
_chemical_formula_structural   Fr0.5Rb6.5Na2H54C45Br9
_chemical_formula_sum   'Fr0.5 Rb6.5 Na2 H54 C45 Br9'
_cell_volume   1267.78494205
_cell_formula_units_Z   1
loop_
 _symmetry_equiv_pos_site_id
 _symmetry_equiv_pos_as_xyz
  1  'x, y, z'
  2  '-y, x-y, z'
  3  '-x+y, -x, z'
  4  'x+2/3, y+1/3, z+1/3'
  5  '-y+2/3, x-y+1/3, z+1/3'
  6  '-x+y+2/3, -x+1/3, z+1/3'
  7  'x+1/3, y+2/3, z+2/3'
  8  '-y+1/3, x-y+2/3, z+2/3'
  9  '-x+y+1/3, -x+2/3, z+2/3'
loop_
 _atom_site_type_symbol
 _atom_site_label
 _atom_site_symmetry_multiplicity
 _atom_site_fract_x
 _atom_site_fract_y
 _atom_site_fract_z
 _atom_site_occupancy
  Rb+  Rb0  9  0.19543333  0.43926667  0.22606667
  0.7222222222222222
  Na+  Na1  9  0.19543333  0.43926667  0.22606667
  0.2222222222222222
  Fr+  Fr2  9  0.19543333  0.43926667  0.22606667
  0.05555555555555555
  H  H3  9  0.01730000  0.20650000  0.55730000  1.0
  H  H4  9  0.04113333  0.61906667  0.08686667  1.0
  H  H5  9  0.08740000  0.85650000  0.31400000  1.0
  H  H6  9  0.08990000  0.85950000  0.75070000  1.0
  H  H7  9  0.14183333  0.68356667  0.42326667  1.0
  H  H8  9  0.14183333  0.68716667  0.98656667  1.0
  C  C9  9  0.01608000  0.92419000  0.66150000  1.0
  C  C10  9  0.03250000  0.84170000  0.66440000  1.0
  C  C11  9  0.03720000  0.80730000  0.40620000  1.0
  C  C12  9  0.09121000  0.01560000  0.65850000  1.0
  C  C13  9  0.17703333  0.47786667  0.31496667  1.0
  Br  Br14  9  0.13266333  0.42514667  0.65466667  1.0
