# generated using pymatgen
data_Sr1In1.75Nh0.25Po0.5B10S2.5O4
_symmetry_space_group_name_H-M  'R 3 :R'
_cell_length_a   7.59400000
_cell_length_b   7.59400000
_cell_length_c   7.59400000
_cell_angle_alpha   83.40000000
_cell_angle_beta   83.40000000
_cell_angle_gamma   83.40000000
_symmetry_Int_Tables_number   146
_chemical_formula_structural   Sr1In1.75Nh0.25Po0.5B10S2.5O4
_chemical_formula_sum   'Sr1 In1.75 Nh0.25 Po0.5 B10 S2.5 O4'
_cell_volume   429.84932927
_cell_formula_units_Z   1
loop_
 _symmetry_equiv_pos_site_id
 _symmetry_equiv_pos_as_xyz
  1  'x, y, z'
  2  'y, z, x'
  3  'z, x, y'
loop_
 _atom_site_type_symbol
 _atom_site_label
 _atom_site_symmetry_multiplicity
 _atom_site_fract_x
 _atom_site_fract_y
 _atom_site_fract_z
 _atom_site_occupancy
  Sr0+  Sr0  1  0.00000000  0.00000000  0.00000000  1.0
  In+  In1  3  0.34200000  0.65800000  0.42900000
  0.5833333333333334
  Nh+  Nh2  3  0.34200000  0.65800000  0.42900000
  0.08333333333333333
  B+  B3  3  0.34200000  0.65800000  0.42900000  0.3333333333333333
  B  B4  3  0.29000000  0.42900000  0.49700000  1.0
  B  B5  3  0.33600000  0.56900000  0.65900000  1.0
  B  B6  3  0.51200000  0.70600000  0.56100000  1.0
  Po0+  Po7  3  0.02100000  0.65600000  0.14000000
  0.16666666666666666
  S0+  S8  3  0.02100000  0.65600000  0.14000000  0.8333333333333334
  O0+  O9  3  0.33400000  0.88200000  0.98700000  1.0
  O0+  O10  1  0.82200000  0.82200000  0.82200000  1.0
