# generated using pymatgen
data_Cs11.5K2Rb0.5Na2.5Li1Ti18H0.5S81
_symmetry_space_group_name_H-M  'R 3 :H'
_cell_length_a   13.52030000
_cell_length_b   13.52030000
_cell_length_c   19.78430000
_cell_angle_alpha   90.00000000
_cell_angle_beta   90.00000000
_cell_angle_gamma   120.00000000
_symmetry_Int_Tables_number   146
_chemical_formula_structural   Cs11.5K2Rb0.5Na2.5Li1Ti18H0.5S81
_chemical_formula_sum   'Cs11.5 K2 Rb0.5 Na2.5 Li1 Ti18 H0.5 S81'
_cell_volume   3132.01603579
_cell_formula_units_Z   1
loop_
 _symmetry_equiv_pos_site_id
 _symmetry_equiv_pos_as_xyz
  1  'x, y, z'
  2  '-y, x-y, z'
  3  '-x+y, -x, z'
  4  'x+2/3, y+1/3, z+1/3'
  5  '-y+2/3, x-y+1/3, z+1/3'
  6  '-x+y+2/3, -x+1/3, z+1/3'
  7  'x+1/3, y+2/3, z+2/3'
  8  '-y+1/3, x-y+2/3, z+2/3'
  9  '-x+y+1/3, -x+2/3, z+2/3'
loop_
 _atom_site_type_symbol
 _atom_site_label
 _atom_site_symmetry_multiplicity
 _atom_site_fract_x
 _atom_site_fract_y
 _atom_site_fract_z
 _atom_site_occupancy
  Cs  Cs0  9  0.01399900  0.64052900  0.19929000  1.0
  Cs+  Cs1  3  0.00000000  0.00000000  0.33928000
  0.6666666666666666
  Rb+  Rb2  3  0.00000000  0.00000000  0.33928000
  0.16666666666666666
  K+  K3  3  0.00000000  0.00000000  0.33928000  0.16666666666666666
  Li+  Li4  3  0.00000000  0.00000000  0.00000000
  0.3333333333333333
  K+  K5  3  0.00000000  0.00000000  0.00000000  0.16666666666666666
  Na+  Na6  3  0.00000000  0.00000000  0.00000000  0.5
  Cs+  Cs7  3  0.00000000  0.00000000  0.76528000
  0.16666666666666666
  K+  K8  3  0.00000000  0.00000000  0.76528000  0.3333333333333333
  Na+  Na9  3  0.00000000  0.00000000  0.76528000
  0.3333333333333333
  H+  H10  3  0.00000000  0.00000000  0.76528000
  0.16666666666666666
  Ti  Ti11  9  0.01934667  0.37820333  0.64831333  1.0
  Ti  Ti12  9  0.02095333  0.34274667  0.81113667  1.0
  S  S13  9  0.00831667  0.17815333  0.47789333  1.0
  S  S14  9  0.01455667  0.48116333  0.38266333  1.0
  S  S15  9  0.02507667  0.20172333  0.64483333  1.0
  S  S16  9  0.03935333  0.46729667  0.06784667  1.0
  S  S17  9  0.05871000  0.24578000  0.23491000  1.0
  S  S18  9  0.07351333  0.52296667  0.73262667  1.0
  S  S19  9  0.13681667  0.46903333  0.55256333  1.0
  S  S20  9  0.16151333  0.77531667  0.00076667  1.0
  S  S21  9  0.18079000  0.06216000  0.17339000  1.0
