# generated using pymatgen
data_Ta24Po6.5Te1Pb6Se2O56.5
_symmetry_space_group_name_H-M  'R 3 :H'
_cell_length_a   6.23700600
_cell_length_b   6.23700600
_cell_length_c   36.86138000
_cell_angle_alpha   90.00000000
_cell_angle_beta   90.00000000
_cell_angle_gamma   120.00000000
_symmetry_Int_Tables_number   146
_chemical_formula_structural   Ta24Po6.5Te1Pb6Se2O56.5
_chemical_formula_sum   'Ta24 Po6.5 Te1 Pb6 Se2 O56.5'
_cell_volume   1241.80826350
_cell_formula_units_Z   1
loop_
 _symmetry_equiv_pos_site_id
 _symmetry_equiv_pos_as_xyz
  1  'x, y, z'
  2  '-y, x-y, z'
  3  '-x+y, -x, z'
  4  'x+1/3, y+2/3, z+2/3'
  5  '-y+1/3, x-y+2/3, z+2/3'
  6  '-x+y+1/3, -x+2/3, z+2/3'
  7  'x+2/3, y+1/3, z+1/3'
  8  '-y+2/3, x-y+1/3, z+1/3'
  9  '-x+y+2/3, -x+1/3, z+1/3'
loop_
 _atom_site_type_symbol
 _atom_site_label
 _atom_site_symmetry_multiplicity
 _atom_site_fract_x
 _atom_site_fract_y
 _atom_site_fract_z
 _atom_site_occupancy
  Ta  Ta0  9  0.02566667  0.69143333  0.08403333  1.0
  Ta  Ta1  9  0.03706667  0.33583333  0.58428333  1.0
  Ta  Ta2  3  0.00000000  0.00000000  0.00090000  1.0
  Ta  Ta3  3  0.00000000  0.00000000  0.50133000  1.0
  Pb  Pb4  3  0.00000000  0.00000000  0.16878000  1.0
  Pb  Pb5  3  0.00000000  0.00000000  0.33171000  1.0
  Te+  Te6  3  0.00000000  0.00000000  0.90554000
  0.3333333333333333
  Se+  Se7  3  0.00000000  0.00000000  0.90554000
  0.6666666666666666
  O+  O8  9  0.04296667  0.76543333  0.03107333  0.2777777777777778
  Po+  Po9  9  0.04296667  0.76543333  0.03107333
  0.7222222222222222
  O  O10  9  0.00230000  0.75150000  0.24950000  1.0
  O  O11  9  0.00290000  0.24890000  0.75210000  1.0
  O  O12  9  0.02436667  0.27783333  0.53156333  1.0
  O  O13  9  0.09586667  0.40503333  0.63589333  1.0
  O  O14  9  0.10856667  0.72413333  0.13505333  1.0
  O  O15  3  0.00000000  0.00000000  0.09362000  1.0
  O  O16  3  0.00000000  0.00000000  0.40607000  1.0
  O  O17  3  0.00000000  0.00000000  0.59271000  1.0
