# generated using pymatgen
data_Al4TlIn4GaCo8Nh5Po5B17TeO50
_symmetry_space_group_name_H-M  'P b c a'
_cell_length_a   8.11890000
_cell_length_b   8.62100000
_cell_length_c   13.73700000
_cell_angle_alpha   90.00000000
_cell_angle_beta   90.00000000
_cell_angle_gamma   90.00000000
_symmetry_Int_Tables_number   61
_chemical_formula_structural   Al4TlIn4GaCo8Nh5Po5B17TeO50
_chemical_formula_sum   'Al4 Tl1 In4 Ga1 Co8 Nh5 Po5 B17 Te1 O50'
_cell_volume   961.49434790
_cell_formula_units_Z   1
loop_
 _symmetry_equiv_pos_site_id
 _symmetry_equiv_pos_as_xyz
  1  'x, y, z'
  2  '-x, -y, -z'
  3  '-x+1/2, -y, z+1/2'
  4  'x+1/2, y, -z+1/2'
  5  'x+1/2, -y+1/2, -z'
  6  '-x+1/2, y+1/2, z'
  7  '-x, y+1/2, -z+1/2'
  8  'x, -y+1/2, z+1/2'
loop_
 _atom_type_symbol
 _atom_type_oxidation_number
  Al0+  0.0
  Tl0+  0.0
  In0+  0.0
  Ga0+  0.0
  Co0+  0.0
  Po0+  0.0
  B0+  0.0
  Te0+  0.0
  O0+  0.0
  Nh0+  0.0
loop_
 _atom_site_type_symbol
 _atom_site_label
 _atom_site_symmetry_multiplicity
 _atom_site_fract_x
 _atom_site_fract_y
 _atom_site_fract_z
 _atom_site_occupancy
  Al0+  Al0  8  0.17010000  0.13670000  0.46230000  0.5
  In0+  In1  8  0.17010000  0.13670000  0.46230000  0.5
  Co0+  Co2  8  0.11080000  0.11890000  0.11800000  1.0
  Nh0+  Nh3  8  0.02790000  0.92170000  0.66640000  0.625
  B0+  B4  8  0.02790000  0.92170000  0.66640000  0.125
  Tl0+  Tl5  8  0.02790000  0.92170000  0.66640000  0.125
  Ga0+  Ga6  8  0.02790000  0.92170000  0.66640000  0.125
  B0+  B7  8  0.03150000  0.15440000  0.76880000  1.0
  B0+  B8  8  0.07820000  0.70210000  0.56310000  1.0
  Po0+  Po9  8  0.09880000  0.06210000  0.70070000  0.625
  O0+  O10  8  0.09880000  0.06210000  0.70070000  0.25
  Te0+  Te11  8  0.09880000  0.06210000  0.70070000  0.125
  O0+  O12  8  0.02090000  0.18850000  0.24930000  1.0
  O0+  O13  8  0.02320000  0.59650000  0.64390000  1.0
  O0+  O14  8  0.06940000  0.24390000  0.99580000  1.0
  O0+  O15  8  0.12270000  0.04860000  0.38660000  1.0
  O0+  O16  8  0.14900000  0.66110000  0.10680000  1.0
  O0+  O17  8  0.18070000  0.60810000  0.50350000  1.0
