# generated using pymatgen
data_Fr0.66666667Na0.33333333Li2V2.66666667Db1.66666667Ta0.66666667Te0.33333333
_symmetry_space_group_name_H-M  'P 3 1 m'
_cell_length_a   8.71340000
_cell_length_b   8.71340000
_cell_length_c   5.28070000
_cell_angle_alpha   90.00000000
_cell_angle_beta   90.00000000
_cell_angle_gamma   120.00000000
_symmetry_Int_Tables_number   157
_chemical_formula_structural
;
Fr0.66666667Na0.33333333Li2V2.66666667Db1.66666667Ta0.66666667Te0.3333
3333S0.33333333O12Lv1.33333333
;
_chemical_formula_sum
;
Fr0.66666667 Na0.33333333 Li2 V2.66666667 Db1.66666667 Ta0.66666667
Te0.33333333 S0.33333333 O12 Lv1.33333333
;
_cell_volume   347.21416150
_cell_formula_units_Z   1
loop_
 _symmetry_equiv_pos_site_id
 _symmetry_equiv_pos_as_xyz
  1  'x, y, z'
  2  '-y, x-y, z'
  3  '-x+y, -x, z'
  4  'y, x, z'
  5  'x-y, -y, z'
  6  '-x, -x+y, z'
loop_
 _atom_site_type_symbol
 _atom_site_label
 _atom_site_symmetry_multiplicity
 _atom_site_fract_x
 _atom_site_fract_y
 _atom_site_fract_z
 _atom_site_occupancy
  Li+  Li0  3  0.00000000  0.38780000  0.17560000
  0.6666666666666666
  Fr+  Fr1  3  0.00000000  0.38780000  0.17560000
  0.2222222222222222
  Na+  Na2  3  0.00000000  0.38780000  0.17560000
  0.1111111111111111
  V+  V3  3  0.00000000  0.76940000  0.66900000  0.2222222222222222
  Db+  Db4  3  0.00000000  0.76940000  0.66900000
  0.5555555555555556
  Ta+  Ta5  3  0.00000000  0.76940000  0.66900000
  0.2222222222222222
  V  V6  2  0.33333333  0.66666667  0.65800000  1.0
  O  O7  6  0.16920000  0.70880000  0.54430000  1.0
  O  O8  3  0.00000000  0.16690000  0.62430000  1.0
  O  O9  3  0.00000000  0.74710000  0.96900000  1.0
  Lv+  Lv10  2  0.33333333  0.66666667  0.96300000
  0.6666666666666666
  S+  S11  2  0.33333333  0.66666667  0.96300000
  0.16666666666666666
  Te+  Te12  2  0.33333333  0.66666667  0.96300000
  0.16666666666666666
