# generated using pymatgen
data_Si2Bi24Te1.75O38.25
_symmetry_space_group_name_H-M  'I 2 3'
_cell_length_a   10.08000000
_cell_length_b   10.08000000
_cell_length_c   10.08000000
_cell_angle_alpha   90.00000000
_cell_angle_beta   90.00000000
_cell_angle_gamma   90.00000000
_symmetry_Int_Tables_number   197
_chemical_formula_structural   Si2Bi24Te1.75O38.25
_chemical_formula_sum   'Si2 Bi24 Te1.75 O38.25'
_cell_volume   1024.19251200
_cell_formula_units_Z   1
loop_
 _symmetry_equiv_pos_site_id
 _symmetry_equiv_pos_as_xyz
  1  'x, y, z'
  2  '-x, -y, z'
  3  'x, -y, -z'
  4  '-x, y, -z'
  5  'z, x, y'
  6  'z, -x, -y'
  7  '-z, x, -y'
  8  '-z, -x, y'
  9  'y, z, x'
  10  '-y, z, -x'
  11  '-y, -z, x'
  12  'y, -z, -x'
  13  'x+1/2, y+1/2, z+1/2'
  14  '-x+1/2, -y+1/2, z+1/2'
  15  'x+1/2, -y+1/2, -z+1/2'
  16  '-x+1/2, y+1/2, -z+1/2'
  17  'z+1/2, x+1/2, y+1/2'
  18  'z+1/2, -x+1/2, -y+1/2'
  19  '-z+1/2, x+1/2, -y+1/2'
  20  '-z+1/2, -x+1/2, y+1/2'
  21  'y+1/2, z+1/2, x+1/2'
  22  '-y+1/2, z+1/2, -x+1/2'
  23  '-y+1/2, -z+1/2, x+1/2'
  24  'y+1/2, -z+1/2, -x+1/2'
loop_
 _atom_type_symbol
 _atom_type_oxidation_number
  Si4+  4.0
  Bi3+  3.0
  Te2-  -2.0
  O2-  -2.0
loop_
 _atom_site_type_symbol
 _atom_site_label
 _atom_site_symmetry_multiplicity
 _atom_site_fract_x
 _atom_site_fract_y
 _atom_site_fract_z
 _atom_site_occupancy
  Si4+  Si0  2  0.00000000  0.00000000  0.00000000  1.0
  Bi3+  Bi1  24  0.02000000  0.32000000  0.18000000  1.0
  O2-  O2  8  0.23000000  0.23000000  0.23000000  0.78125
  Te2-  Te3  8  0.23000000  0.23000000  0.23000000  0.21875
  O2-  O4  24  0.02000000  0.16000000  0.63000000  1.0
  O2-  O5  8  0.11000000  0.11000000  0.89000000  1.0
