# generated using pymatgen
data_Li24Ta4Nb1Db0.5V2.5O32
_symmetry_space_group_name_H-M  'I 2 3'
_cell_length_a   8.42900000
_cell_length_b   8.42900000
_cell_length_c   8.42900000
_cell_angle_alpha   90.00000000
_cell_angle_beta   90.00000000
_cell_angle_gamma   90.00000000
_symmetry_Int_Tables_number   197
_chemical_formula_structural   Li24Ta4Nb1Db0.5V2.5O32
_chemical_formula_sum   'Li24 Ta4 Nb1 Db0.5 V2.5 O32'
_cell_volume   598.86393759
_cell_formula_units_Z   1
loop_
 _symmetry_equiv_pos_site_id
 _symmetry_equiv_pos_as_xyz
  1  'x, y, z'
  2  '-x, -y, z'
  3  'x, -y, -z'
  4  '-x, y, -z'
  5  'z, x, y'
  6  'z, -x, -y'
  7  '-z, x, -y'
  8  '-z, -x, y'
  9  'y, z, x'
  10  '-y, z, -x'
  11  '-y, -z, x'
  12  'y, -z, -x'
  13  'x+1/2, y+1/2, z+1/2'
  14  '-x+1/2, -y+1/2, z+1/2'
  15  'x+1/2, -y+1/2, -z+1/2'
  16  '-x+1/2, y+1/2, -z+1/2'
  17  'z+1/2, x+1/2, y+1/2'
  18  'z+1/2, -x+1/2, -y+1/2'
  19  '-z+1/2, x+1/2, -y+1/2'
  20  '-z+1/2, -x+1/2, y+1/2'
  21  'y+1/2, z+1/2, x+1/2'
  22  '-y+1/2, z+1/2, -x+1/2'
  23  '-y+1/2, -z+1/2, x+1/2'
  24  'y+1/2, -z+1/2, -x+1/2'
loop_
 _atom_type_symbol
 _atom_type_oxidation_number
  Li+  1.0
  Ta5+  5.0
  Nb5+  5.0
  V5+  5.0
  O2-  -2.0
  Db5+  5.0
loop_
 _atom_site_type_symbol
 _atom_site_label
 _atom_site_symmetry_multiplicity
 _atom_site_fract_x
 _atom_site_fract_y
 _atom_site_fract_z
 _atom_site_occupancy
  Li+  Li0  24  0.12500000  0.12500000  0.62500000  1.0
  Ta5+  Ta1  8  0.14000000  0.14000000  0.14000000  0.5
  Nb5+  Nb2  8  0.14000000  0.14000000  0.14000000  0.125
  Db5+  Db3  8  0.14000000  0.14000000  0.14000000  0.0625
  V5+  V4  8  0.14000000  0.14000000  0.14000000  0.3125
  O2-  O5  24  0.11500000  0.35000000  0.13000000  1.0
  O2-  O6  8  0.11000000  0.11000000  0.89000000  1.0
