# generated using pymatgen
data_Rg0.5Ga0.5Bi0.5B0.5Sb1.5P1.5H16Au0.5C12Mc0.5O2F4
_symmetry_space_group_name_H-M  'P -4'
_cell_length_a   9.00600000
_cell_length_b   9.00600000
_cell_length_c   5.66270000
_cell_angle_alpha   90.00000000
_cell_angle_beta   90.00000000
_cell_angle_gamma   90.00000000
_symmetry_Int_Tables_number   81
_chemical_formula_structural
Rg0.5Ga0.5Bi0.5B0.5Sb1.5P1.5H16Au0.5C12Mc0.5O2F4
_chemical_formula_sum
'Rg0.5 Ga0.5 Bi0.5 B0.5 Sb1.5 P1.5 H16 Au0.5 C12 Mc0.5 O2 F4'
_cell_volume   459.29047546
_cell_formula_units_Z   1
loop_
 _symmetry_equiv_pos_site_id
 _symmetry_equiv_pos_as_xyz
  1  'x, y, z'
  2  'y, -x, -z'
  3  '-x, -y, z'
  4  '-y, x, -z'
loop_
 _atom_site_type_symbol
 _atom_site_label
 _atom_site_symmetry_multiplicity
 _atom_site_fract_x
 _atom_site_fract_y
 _atom_site_fract_z
 _atom_site_occupancy
  Rg+  Rg0  1  0.00000000  0.00000000  0.50000000  0.5
  Au+  Au1  1  0.00000000  0.00000000  0.50000000  0.5
  Ga+  Ga2  1  0.50000000  0.50000000  0.50000000  0.5
  B+  B3  1  0.50000000  0.50000000  0.50000000  0.5
  H  H4  4  0.04320000  0.65860000  0.68330000  1.0
  H  H5  4  0.14900000  0.52030000  0.66020000  1.0
  H  H6  4  0.26620000  0.58160000  0.00820000  1.0
  H  H7  4  0.27430000  0.71750000  0.83600000  1.0
  C  C8  4  0.09810000  0.58430000  0.77150000  1.0
  C  C9  4  0.13960000  0.75120000  0.10950000  1.0
  C  C10  4  0.20750000  0.65750000  0.93060000  1.0
  Bi+  Bi11  4  0.08970000  0.82260000  0.25140000  0.125
  Sb+  Sb12  4  0.08970000  0.82260000  0.25140000  0.375
  P+  P13  4  0.08970000  0.82260000  0.25140000  0.375
  Mc+  Mc14  4  0.08970000  0.82260000  0.25140000  0.125
  O  O15  2  0.00000000  0.50000000  0.91280000  1.0
  F  F16  4  0.41060000  0.56900000  0.37200000  1.0
