# generated using pymatgen
data_CsKNaLiCaCo2SiSnGeH12C8FlPoTeN4O13Lv
_symmetry_space_group_name_H-M  'P -4'
_cell_length_a   8.89800000
_cell_length_b   8.89800000
_cell_length_c   7.67900000
_cell_angle_alpha   90.00000000
_cell_angle_beta   90.00000000
_cell_angle_gamma   90.00000000
_symmetry_Int_Tables_number   81
_chemical_formula_structural   CsKNaLiCaCo2SiSnGeH12C8FlPoTeN4O13Lv
_chemical_formula_sum
'Cs1 K1 Na1 Li1 Ca1 Co2 Si1 Sn1 Ge1 H12 C8 Fl1 Po1 Te1 N4 O13 Lv1'
_cell_volume   607.98024832
_cell_formula_units_Z   1
loop_
 _symmetry_equiv_pos_site_id
 _symmetry_equiv_pos_as_xyz
  1  'x, y, z'
  2  'y, -x, -z'
  3  '-x, -y, z'
  4  '-y, x, -z'
loop_
 _atom_site_type_symbol
 _atom_site_label
 _atom_site_symmetry_multiplicity
 _atom_site_fract_x
 _atom_site_fract_y
 _atom_site_fract_z
 _atom_site_occupancy
  Li+  Li0  4  0.22670000  0.46660000  0.88940000  0.25
  K+  K1  4  0.22670000  0.46660000  0.88940000  0.25
  Na+  Na2  4  0.22670000  0.46660000  0.88940000  0.25
  Cs+  Cs3  4  0.22670000  0.46660000  0.88940000  0.25
  Ca  Ca4  1  0.00000000  0.00000000  0.50000000  1.0
  Co  Co5  2  0.00000000  0.50000000  0.04855000  1.0
  H  H6  4  0.10670000  0.61000000  0.69770000  1.0
  H  H7  4  0.11770000  0.45320000  0.60360000  1.0
  H  H8  4  0.13160000  0.33530000  0.85840000  1.0
  C  C9  4  0.05730000  0.76470000  0.18610000  1.0
  C  C10  4  0.08220000  0.29430000  0.27870000  1.0
  Fl+  Fl11  4  0.07600000  0.50540000  0.70360000  0.25
  Sn+  Sn12  4  0.07600000  0.50540000  0.70360000  0.25
  Si+  Si13  4  0.07600000  0.50540000  0.70360000  0.25
  Ge+  Ge14  4  0.07600000  0.50540000  0.70360000  0.25
  N  N15  4  0.13210000  0.43620000  0.86720000  1.0
  O  O16  4  0.10190000  0.68430000  0.05830000  1.0
  O  O17  4  0.11610000  0.88320000  0.23750000  1.0
  O  O18  4  0.13030000  0.41950000  0.22530000  1.0
  O+  O19  4  0.13970000  0.21820000  0.39750000  0.25
  Te+  Te20  4  0.13970000  0.21820000  0.39750000  0.25
  Po+  Po21  4  0.13970000  0.21820000  0.39750000  0.25
  Lv+  Lv22  4  0.13970000  0.21820000  0.39750000  0.25
