# generated using pymatgen
data_Cs1.75Rb3.75Li2.5Si0.5H36Pb3.25C34.25N4O8
_symmetry_space_group_name_H-M  'P b a 2'
_cell_length_a   7.45950000
_cell_length_b   25.45900000
_cell_length_c   4.59380000
_cell_angle_alpha   90.00000000
_cell_angle_beta   90.00000000
_cell_angle_gamma   90.00000000
_symmetry_Int_Tables_number   32
_chemical_formula_structural
Cs1.75Rb3.75Li2.5Si0.5H36Pb3.25C34.25N4O8
_chemical_formula_sum
'Cs1.75 Rb3.75 Li2.5 Si0.5 H36 Pb3.25 C34.25 N4 O8'
_cell_volume   872.41503755
_cell_formula_units_Z   1
loop_
 _symmetry_equiv_pos_site_id
 _symmetry_equiv_pos_as_xyz
  1  'x, y, z'
  2  '-x, -y, z'
  3  '-x+1/2, y+1/2, z'
  4  'x+1/2, -y+1/2, z'
loop_
 _atom_site_type_symbol
 _atom_site_label
 _atom_site_symmetry_multiplicity
 _atom_site_fract_x
 _atom_site_fract_y
 _atom_site_fract_z
 _atom_site_occupancy
  Cs+  Cs0  4  0.09890000  0.31000000  0.33080000  0.0625
  Rb+  Rb1  4  0.09890000  0.31000000  0.33080000  0.9375
  Cs+  Cs2  4  0.23290000  0.98290000  0.84360000  0.375
  Li+  Li3  4  0.23290000  0.98290000  0.84360000  0.625
  H  H4  4  0.00690000  0.65000000  0.52540000  1.0
  H  H5  4  0.00880000  0.35940000  0.18910000  1.0
  H  H6  4  0.01430000  0.94210000  0.42840000  1.0
  H  H7  4  0.02670000  0.75860000  0.01350000  1.0
  H  H8  4  0.03050000  0.52940000  0.66470000  1.0
  H  H9  4  0.18450000  0.51200000  0.11480000  1.0
  H  H10  4  0.22070000  0.19080000  0.12630000  1.0
  H  H11  4  0.23540000  0.78920000  0.69660000  1.0
  H  H12  4  0.24140000  0.61070000  0.90650000  1.0
  C+  C13  4  0.23900000  0.37735000  0.40600000  0.0625
  Pb+  Pb14  4  0.23900000  0.37735000  0.40600000  0.8125
  Si+  Si15  4  0.23900000  0.37735000  0.40600000  0.125
  C  C16  4  0.01160000  0.79140000  0.92770000  1.0
  C  C17  4  0.03500000  0.11254000  0.66630000  1.0
  C  C18  4  0.06960000  0.34639000  0.35850000  1.0
  C  C19  4  0.11980000  0.85803000  0.59990000  1.0
  C  C20  4  0.13550000  0.80987000  0.73690000  1.0
  C  C21  4  0.13630000  0.17870000  0.99340000  1.0
  C  C22  4  0.15850000  0.13100000  0.86220000  1.0
  C  C23  4  0.16210000  0.48557000  0.96710000  1.0
  C  C24  2  0.00000000  0.50000000  0.78930000  1.0
  N  N25  4  0.23350000  0.92117000  0.27940000  1.0
  O  O26  4  0.06750000  0.06514000  0.54100000  1.0
  O  O27  4  0.12350000  0.43595000  0.09970000  1.0
