# generated using pymatgen
data_Pr1Nd2Sm0.33333333Gd0.33333333Er0.33333333Po0.66666667Te1.66666667H32Pb0.3
_symmetry_space_group_name_H-M  'P b a 2'
_cell_length_a   11.54130000
_cell_length_b   16.12480000
_cell_length_c   8.59490000
_cell_angle_alpha   90.00000000
_cell_angle_beta   90.00000000
_cell_angle_gamma   90.00000000
_symmetry_Int_Tables_number   32
_chemical_formula_structural
;
Pr1Nd2Sm0.33333333Gd0.33333333Er0.33333333Po0.66666667Te1.66666667H32P
b0.33333333C20.33333333Fl3.33333333Se1.33333333S4N4O48.33333333
;
_chemical_formula_sum
;
Pr1 Nd2 Sm0.33333333 Gd0.33333333 Er0.33333333 Po0.66666667
Te1.66666667 H32 Pb0.33333333 C20.33333333 Fl3.33333333 Se1.33333333
S4 N4 O48.33333333
;
_cell_volume   1599.52081058
_cell_formula_units_Z   1
loop_
 _symmetry_equiv_pos_site_id
 _symmetry_equiv_pos_as_xyz
  1  'x, y, z'
  2  '-x, -y, z'
  3  '-x+1/2, y+1/2, z'
  4  'x+1/2, -y+1/2, z'
loop_
 _atom_site_type_symbol
 _atom_site_label
 _atom_site_symmetry_multiplicity
 _atom_site_fract_x
 _atom_site_fract_y
 _atom_site_fract_z
 _atom_site_occupancy
  Nd  Nd0  2  0.00000000  0.50000000  0.95465000  1.0
  Er+  Er1  2  0.00000000  0.00000000  0.03962000
  0.16666666666666666
  Gd+  Gd2  2  0.00000000  0.00000000  0.03962000
  0.16666666666666666
  Pr+  Pr3  2  0.00000000  0.00000000  0.03962000  0.5
  Sm+  Sm4  2  0.00000000  0.00000000  0.03962000
  0.16666666666666666
  H  H5  4  0.02910000  0.68390000  0.49910000  1.0
  H  H6  4  0.03360000  0.23350000  0.98090000  1.0
  H  H7  4  0.04160000  0.24990000  0.70180000  1.0
  H  H8  4  0.04680000  0.38630000  0.57390000  1.0
  H  H9  4  0.07770000  0.72050000  0.76840000  1.0
  H  H10  4  0.09080000  0.30310000  0.08250000  1.0
  H  H11  4  0.19970000  0.35540000  0.72590000  1.0
  H  H12  4  0.21440000  0.28380000  0.84800000  1.0
  Te+  Te13  4  0.01780000  0.87580000  0.21890000
  0.4166666666666667
  Se+  Se14  4  0.01780000  0.87580000  0.21890000
  0.3333333333333333
  O+  O15  4  0.01780000  0.87580000  0.21890000
  0.08333333333333333
  Po+  Po16  4  0.01780000  0.87580000  0.21890000
  0.16666666666666666
  C  C17  4  0.00270000  0.70160000  0.73170000  1.0
  C  C18  4  0.03170000  0.29220000  0.00490000  1.0
  C  C19  4  0.08730000  0.68540000  0.07190000  1.0
  Fl+  Fl20  4  0.02100000  0.64840000  0.58960000
  0.8333333333333334
  Pb+  Pb21  4  0.02100000  0.64840000  0.58960000
  0.08333333333333333
  C+  C22  4  0.02100000  0.64840000  0.58960000
  0.08333333333333333
  C  C23  4  0.18470000  0.33950000  0.83280000  1.0
  C  C24  4  0.24710000  0.39910000  0.94230000  1.0
  S  S25  4  0.14648000  0.58357000  0.60524000  1.0
  N  N26  4  0.05790000  0.34030000  0.86210000  1.0
  O  O27  4  0.12500000  0.52520000  0.73370000  1.0
  O  O28  4  0.12600000  0.61423000  0.04220000  1.0
  O  O29  4  0.13770000  0.73774000  0.15340000  1.0
  O  O30  4  0.13780000  0.91440000  0.52350000  1.0
  O  O31  4  0.14520000  0.90123000  0.93660000  1.0
  O  O32  4  0.14700000  0.10037000  0.93320000  1.0
  O  O33  4  0.15840000  0.54100000  0.45990000  1.0
  O  O34  4  0.16800000  0.01467000  0.22430000  1.0
  O  O35  4  0.17500000  0.19640000  0.33620000  1.0
  O  O36  4  0.18560000  0.44177000  0.03210000  1.0
  O  O37  4  0.24420000  0.63840000  0.63740000  1.0
  O  O38  2  0.00000000  0.00000000  0.74030000  1.0
  O  O39  2  0.00000000  0.50000000  0.23820000  1.0
