# generated using pymatgen
data_Zn0.5Cd0.08333333Hg1.08333333Cn0.33333333Au4F16
_symmetry_space_group_name_H-M  'P 4/m c c'
_cell_length_a   5.75000000
_cell_length_b   5.75000000
_cell_length_c   10.34800000
_cell_angle_alpha   90.00000000
_cell_angle_beta   90.00000000
_cell_angle_gamma   90.00000000
_symmetry_Int_Tables_number   124
_chemical_formula_structural
Zn0.5Cd0.08333333Hg1.08333333Cn0.33333333Au4F16
_chemical_formula_sum
'Zn0.5 Cd0.08333333 Hg1.08333333 Cn0.33333333 Au4 F16'
_cell_volume   342.13075000
_cell_formula_units_Z   1
loop_
 _symmetry_equiv_pos_site_id
 _symmetry_equiv_pos_as_xyz
  1  'x, y, z'
  2  '-x, -y, -z'
  3  '-y, x, z'
  4  'y, -x, -z'
  5  '-x, -y, z'
  6  'x, y, -z'
  7  'y, -x, z'
  8  '-y, x, -z'
  9  'x, -y, -z+1/2'
  10  '-x, y, z+1/2'
  11  '-y, -x, -z+1/2'
  12  'y, x, z+1/2'
  13  '-x, y, -z+1/2'
  14  'x, -y, z+1/2'
  15  'y, x, -z+1/2'
  16  '-y, -x, z+1/2'
loop_
 _atom_type_symbol
 _atom_type_oxidation_number
  Zn0+  0.0
  Cd0+  0.0
  Hg0+  0.0
  Au0+  0.0
  F0+  0.0
  Cn0+  0.0
loop_
 _atom_site_type_symbol
 _atom_site_label
 _atom_site_symmetry_multiplicity
 _atom_site_fract_x
 _atom_site_fract_y
 _atom_site_fract_z
 _atom_site_occupancy
  Hg0+  Hg0  2  0.00000000  0.00000000  0.25000000
  0.5416666666666666
  Zn0+  Zn1  2  0.00000000  0.00000000  0.25000000  0.25
  Cn0+  Cn2  2  0.00000000  0.00000000  0.25000000
  0.16666666666666666
  Cd0+  Cd3  2  0.00000000  0.00000000  0.25000000
  0.041666666666666664
  Au0+  Au4  4  0.00000000  0.50000000  0.00000000  1.0
  F0+  F5  16  0.14450000  0.30780000  0.12850000  1.0
