# generated using pymatgen
data_FrKRbLi5Si2Ge2H64PbAu4C63Fl4(N2Cl5)4
_symmetry_space_group_name_H-M  'A e m 2'
_cell_length_a   4.54980000
_cell_length_b   26.31300000
_cell_length_c   18.07180000
_cell_angle_alpha   90.00000000
_cell_angle_beta   90.00000000
_cell_angle_gamma   90.00000000
_symmetry_Int_Tables_number   39
_chemical_formula_structural   FrKRbLi5Si2Ge2H64PbAu4C63Fl4(N2Cl5)4
_chemical_formula_sum
'Fr1 K1 Rb1 Li5 Si2 Ge2 H64 Pb1 Au4 C63 Fl4 N8 Cl20'
_cell_volume   2163.53578932
_cell_formula_units_Z   1
loop_
 _symmetry_equiv_pos_site_id
 _symmetry_equiv_pos_as_xyz
  1  'x, y, z'
  2  '-x, -y, z'
  3  '-x, y+1/2, z'
  4  'x, -y+1/2, z'
  5  'x, y+1/2, z+1/2'
  6  '-x, -y+1/2, z+1/2'
  7  '-x, y, z+1/2'
  8  'x, -y, z+1/2'
loop_
 _atom_type_symbol
 _atom_type_oxidation_number
  Fr0+  0.0
  K0+  0.0
  Rb0+  0.0
  Li0+  0.0
  Si0+  0.0
  Ge0+  0.0
  H0+  0.0
  Pb0+  0.0
  Au0+  0.0
  C0+  0.0
  N0+  0.0
  Cl0+  0.0
  Fl0+  0.0
loop_
 _atom_site_type_symbol
 _atom_site_label
 _atom_site_symmetry_multiplicity
 _atom_site_fract_x
 _atom_site_fract_y
 _atom_site_fract_z
 _atom_site_occupancy
  Li0+  Li0  8  0.25680000  0.05930000  0.29010000  0.625
  Fr0+  Fr1  8  0.25680000  0.05930000  0.29010000  0.125
  K0+  K2  8  0.25680000  0.05930000  0.29010000  0.125
  Rb0+  Rb3  8  0.25680000  0.05930000  0.29010000  0.125
  H0+  H4  8  0.03270000  0.06650000  0.18670000  1.0
  H0+  H5  8  0.10460000  0.10750000  0.12500000  1.0
  H0+  H6  8  0.11870000  0.19730000  0.76070000  1.0
  H0+  H7  8  0.22680000  0.16380000  0.86890000  1.0
  H0+  H8  8  0.22730000  0.06400000  0.01250000  1.0
  H0+  H9  8  0.35540000  0.17540000  0.66000000  1.0
  H0+  H10  8  0.49940000  0.09820000  0.38360000  1.0
  H0+  H11  4  0.50000000  0.00000000  0.20310000  1.0
  H0+  H12  4  0.50000000  0.00000000  0.43750000  1.0
  C0+  C13  4  0.50000000  0.00000000  0.49400000  0.75
  Pb0+  Pb14  4  0.50000000  0.00000000  0.49400000  0.25
  Au0+  Au15  4  0.08880000  0.25000000  0.50000000  1.0
  C0+  C16  8  0.26300000  0.17020000  0.76300000  1.0
  C0+  C17  8  0.31800000  0.14930000  0.82500000  1.0
  C0+  C18  8  0.34200000  0.03850000  0.03800000  1.0
  C0+  C19  8  0.35100000  0.03980000  0.11040000  1.0
  C0+  C20  8  0.38500000  0.10770000  0.20800000  1.0
  C0+  C21  8  0.38800000  0.15710000  0.70600000  1.0
  C0+  C22  8  0.48000000  0.11180000  0.83400000  1.0
  C0+  C23  4  0.50000000  0.00000000  0.15000000  1.0
  Fl0+  Fl24  8  0.18900000  0.08200000  0.15800000  0.5
  Si0+  Si25  8  0.18900000  0.08200000  0.15800000  0.25
  Ge0+  Ge26  8  0.18900000  0.08200000  0.15800000  0.25
  N0+  N27  8  0.37400000  0.08920000  0.27950000  1.0
  Cl0+  Cl28  8  0.11300000  0.16480000  0.49970000  1.0
  Cl0+  Cl29  4  0.00000000  0.00000000  0.32750000  1.0
  Cl0+  Cl30  4  0.12200000  0.25000000  0.11440000  1.0
  Cl0+  Cl31  4  0.28300000  0.25000000  0.38360000  1.0
