# generated using pymatgen
data_Zn8H64At2.25C16Ts1Br12N16F0.75
_symmetry_space_group_name_H-M  'I m a 2'
_cell_length_a   19.27000000
_cell_length_b   7.21110000
_cell_length_c   10.02500000
_cell_angle_alpha   90.00000000
_cell_angle_beta   90.00000000
_cell_angle_gamma   90.00000000
_symmetry_Int_Tables_number   46
_chemical_formula_structural   Zn8H64At2.25C16Ts1Br12N16F0.75
_chemical_formula_sum   'Zn8 H64 At2.25 C16 Ts1 Br12 N16 F0.75'
_cell_volume   1393.05291743
_cell_formula_units_Z   1
loop_
 _symmetry_equiv_pos_site_id
 _symmetry_equiv_pos_as_xyz
  1  'x, y, z'
  2  '-x, -y, z'
  3  '-x, y+1/2, z+1/2'
  4  'x, -y+1/2, z+1/2'
  5  'x+1/2, y+1/2, z+1/2'
  6  '-x+1/2, -y+1/2, z+1/2'
  7  '-x+1/2, y, z'
  8  'x+1/2, -y, z'
loop_
 _atom_site_type_symbol
 _atom_site_label
 _atom_site_symmetry_multiplicity
 _atom_site_fract_x
 _atom_site_fract_y
 _atom_site_fract_z
 _atom_site_occupancy
  Zn  Zn0  4  0.00000000  0.00000000  0.80390000  1.0
  Zn  Zn1  4  0.25000000  0.67030000  0.53390000  1.0
  H  H2  8  0.05330000  0.11490000  0.19960000  1.0
  H  H3  8  0.06570000  0.10140000  0.60200000  1.0
  H  H4  8  0.10770000  0.17530000  0.30740000  1.0
  H  H5  8  0.11660000  0.04540000  0.70050000  1.0
  H  H6  8  0.13150000  0.64850000  0.63280000  1.0
  H  H7  8  0.13890000  0.13400000  0.03560000  1.0
  H  H8  8  0.18030000  0.59550000  0.73660000  1.0
  H  H9  8  0.19310000  0.19150000  0.14430000  1.0
  C  C10  8  0.09450000  0.18900000  0.21450000  1.0
  C  C11  8  0.15190000  0.11750000  0.12830000  1.0
  At+  At12  4  0.25000000  0.51500000  0.96620000  0.5625
  Ts+  Ts13  4  0.25000000  0.51500000  0.96620000  0.25
  F+  F14  4  0.25000000  0.51500000  0.96620000  0.1875
  Br  Br15  8  0.04675000  0.74920000  0.43200000  1.0
  Br  Br16  4  0.25000000  0.00010000  0.82840000  1.0
  N  N17  8  0.07780000  0.11270000  0.68820000  1.0
  N  N18  8  0.16920000  0.57900000  0.65020000  1.0
