# generated using pymatgen
data_Cs3.5Rb0.5Nb4Cu8Po4Te2S4.5O5Lv0.5
_symmetry_space_group_name_H-M  'A m a 2'
_cell_length_a   7.40600000
_cell_length_b   18.31300000
_cell_length_c   5.52200000
_cell_angle_alpha   90.00000000
_cell_angle_beta   90.00000000
_cell_angle_gamma   90.00000000
_symmetry_Int_Tables_number   40
_chemical_formula_structural   Cs3.5Rb0.5Nb4Cu8Po4Te2S4.5O5Lv0.5
_chemical_formula_sum   'Cs3.5 Rb0.5 Nb4 Cu8 Po4 Te2 S4.5 O5 Lv0.5'
_cell_volume   748.92720272
_cell_formula_units_Z   1
loop_
 _symmetry_equiv_pos_site_id
 _symmetry_equiv_pos_as_xyz
  1  'x, y, z'
  2  '-x, -y, z'
  3  '-x+1/2, y, z'
  4  'x+1/2, -y, z'
  5  'x, y+1/2, z+1/2'
  6  '-x, -y+1/2, z+1/2'
  7  '-x+1/2, y+1/2, z+1/2'
  8  'x+1/2, -y+1/2, z+1/2'
loop_
 _atom_site_type_symbol
 _atom_site_label
 _atom_site_symmetry_multiplicity
 _atom_site_fract_x
 _atom_site_fract_y
 _atom_site_fract_z
 _atom_site_occupancy
  Rb+  Rb0  4  0.25000000  0.18070000  0.00660000  0.125
  Cs+  Cs1  4  0.25000000  0.18070000  0.00660000  0.875
  Nb  Nb2  4  0.25000000  0.38780000  0.25160000  1.0
  Cu  Cu3  4  0.00000000  0.00000000  0.72800000  1.0
  Cu  Cu4  4  0.25000000  0.39420000  0.75200000  1.0
  Po+  Po5  4  0.25000000  0.49300000  0.48660000  0.5
  O+  O6  4  0.25000000  0.49300000  0.48660000  0.25
  S+  S7  4  0.25000000  0.49300000  0.48660000  0.125
  Lv+  Lv8  4  0.25000000  0.49300000  0.48660000  0.125
  S  S9  4  0.25000000  0.29010000  0.50510000  1.0
  O+  O10  8  0.00050000  0.10790000  0.50810000  0.5
  Te+  Te11  8  0.00050000  0.10790000  0.50810000  0.25
  Po+  Po12  8  0.00050000  0.10790000  0.50810000  0.25
