# generated using pymatgen
data_H32W4C41Fl0.66666667Ge6.33333333O28
_symmetry_space_group_name_H-M  'A m a 2'
_cell_length_a   7.60440000
_cell_length_b   12.07310000
_cell_length_c   14.80120000
_cell_angle_alpha   90.00000000
_cell_angle_beta   90.00000000
_cell_angle_gamma   90.00000000
_symmetry_Int_Tables_number   40
_chemical_formula_structural   H32W4C41Fl0.66666667Ge6.33333333O28
_chemical_formula_sum   'H32 W4 C41 Fl0.66666667 Ge6.33333333 O28'
_cell_volume   1358.87865869
_cell_formula_units_Z   1
loop_
 _symmetry_equiv_pos_site_id
 _symmetry_equiv_pos_as_xyz
  1  'x, y, z'
  2  '-x, -y, z'
  3  '-x+1/2, y, z'
  4  'x+1/2, -y, z'
  5  'x, y+1/2, z+1/2'
  6  '-x, -y+1/2, z+1/2'
  7  '-x+1/2, y+1/2, z+1/2'
  8  'x+1/2, -y+1/2, z+1/2'
loop_
 _atom_site_type_symbol
 _atom_site_label
 _atom_site_symmetry_multiplicity
 _atom_site_fract_x
 _atom_site_fract_y
 _atom_site_fract_z
 _atom_site_occupancy
  H  H0  8  0.14670000  0.12910000  0.23840000  1.0
  H  H1  8  0.14690000  0.45020000  0.69310000  1.0
  H  H2  4  0.25000000  0.02430000  0.12410000  1.0
  H  H3  4  0.25000000  0.33990000  0.12150000  1.0
  H  H4  4  0.25000000  0.37330000  0.95460000  1.0
  H  H5  4  0.25000000  0.49740000  0.19250000  1.0
  W  W6  4  0.25000000  0.29038000  0.40931000  1.0
  C  C7  8  0.05980000  0.29660000  0.50670000  1.0
  C  C8  4  0.25000000  0.03850000  0.48420000  1.0
  C  C9  4  0.25000000  0.08330000  0.24740000  1.0
  C  C10  4  0.25000000  0.10830000  0.41270000  1.0
  C  C11  4  0.25000000  0.40900000  0.09370000  1.0
  C  C12  4  0.25000000  0.42780000  0.99900000  1.0
  C  C13  4  0.25000000  0.45680000  0.40950000  1.0
  C  C14  4  0.25000000  0.49170000  0.12980000  1.0
  C  C15  4  0.25000000  0.49490000  0.68430000  1.0
  Fl+  Fl16  8  0.06060000  0.29620000  0.31170000
  0.08333333333333333
  C+  C17  8  0.06060000  0.29620000  0.31170000  0.125
  Ge+  Ge18  8  0.06060000  0.29620000  0.31170000
  0.7916666666666666
  O  O19  8  0.04440000  0.19360000  0.06130000  1.0
  O  O20  8  0.04510000  0.19490000  0.75750000  1.0
  O  O21  4  0.25000000  0.04040000  0.33560000  1.0
  O  O22  4  0.25000000  0.05130000  0.92420000  1.0
  O  O23  4  0.25000000  0.08820000  0.57150000  1.0
