# generated using pymatgen
data_Rb8Li20In3B25O56
_symmetry_space_group_name_H-M  'A m a 2'
_cell_length_a   20.37600000
_cell_length_b   13.51140000
_cell_length_c   4.39000000
_cell_angle_alpha   90.00000000
_cell_angle_beta   90.00000000
_cell_angle_gamma   90.00000000
_symmetry_Int_Tables_number   40
_chemical_formula_structural   Rb8Li20In3B25O56
_chemical_formula_sum   'Rb8 Li20 In3 B25 O56'
_cell_volume   1208.60337730
_cell_formula_units_Z   1
loop_
 _symmetry_equiv_pos_site_id
 _symmetry_equiv_pos_as_xyz
  1  'x, y, z'
  2  '-x, -y, z'
  3  '-x+1/2, y, z'
  4  'x+1/2, -y, z'
  5  'x, y+1/2, z+1/2'
  6  '-x, -y+1/2, z+1/2'
  7  '-x+1/2, y+1/2, z+1/2'
  8  'x+1/2, -y+1/2, z+1/2'
loop_
 _atom_site_type_symbol
 _atom_site_label
 _atom_site_symmetry_multiplicity
 _atom_site_fract_x
 _atom_site_fract_y
 _atom_site_fract_z
 _atom_site_occupancy
  Rb  Rb0  8  0.15381500  0.31283000  0.03281000  1.0
  Li  Li1  8  0.01200000  0.41500000  0.01900000  1.0
  Li  Li2  8  0.06850000  0.00970000  0.01800000  1.0
  Li  Li3  4  0.25000000  0.17480000  0.52700000  1.0
  In+  In4  8  0.00873000  0.29960000  0.53860000  0.375
  B+  B5  8  0.00873000  0.29960000  0.53860000  0.625
  B  B6  8  0.12586000  0.07580000  0.54460000  1.0
  B  B7  8  0.18913000  0.07400000  0.04030000  1.0
  B  B8  4  0.25000000  0.41200000  0.53300000  1.0
  O  O9  8  0.00811000  0.28160000  0.85600000  1.0
  O  O10  8  0.02495000  0.38680000  0.44250000  1.0
  O  O11  8  0.07321000  0.02316000  0.45570000  1.0
  O  O12  8  0.13236000  0.10309000  0.84940000  1.0
  O  O13  8  0.17459000  0.10877000  0.35250000  1.0
  O  O14  8  0.19121000  0.46429000  0.53190000  1.0
  O  O15  4  0.25000000  0.11870000  0.94080000  1.0
  O  O16  4  0.25000000  0.31340000  0.52550000  1.0
