# generated using pymatgen
data_Ca1V2Po0.125Te0.25P2H8Se0.25S0.75O12.125Lv0.5
_symmetry_space_group_name_H-M  'P 1'
_cell_length_a   6.34840000
_cell_length_b   6.35000000
_cell_length_c   6.59700000
_cell_angle_alpha   106.81000000
_cell_angle_beta   94.09000000
_cell_angle_gamma   90.02000000
_symmetry_Int_Tables_number   1
_chemical_formula_structural
Ca1V2Po0.125Te0.25P2H8Se0.25S0.75O12.125Lv0.5
_chemical_formula_sum
'Ca1 V2 Po0.125 Te0.25 P2 H8 Se0.25 S0.75 O12.125 Lv0.5'
_cell_volume   253.86698998
_cell_formula_units_Z   1
loop_
 _symmetry_equiv_pos_site_id
 _symmetry_equiv_pos_as_xyz
  1  'x, y, z'
loop_
 _atom_site_type_symbol
 _atom_site_label
 _atom_site_symmetry_multiplicity
 _atom_site_fract_x
 _atom_site_fract_y
 _atom_site_fract_z
 _atom_site_occupancy
  Ca  Ca0  1  0.65020000  0.90100000  0.49830000  1
  V  V1  1  0.34220000  0.86250000  0.94130000  1
  V  V2  1  0.85040000  0.42920000  0.12180000  1
  P  P3  1  0.34250000  0.39780000  0.03670000  1
  P  P4  1  0.84300000  0.89870000  0.02350000  1
  H  H5  1  0.00780000  0.15220000  0.46070000  1
  H  H6  1  0.07060000  0.96440000  0.46310000  1
  H  H7  1  0.25170000  0.65060000  0.45370000  1
  H  H8  1  0.25990000  0.88970000  0.55310000  1
  H  H9  1  0.41240000  0.35350000  0.62350000  1
  H  H10  1  0.53880000  0.32560000  0.41910000  1
  H  H11  1  0.77240000  0.46340000  0.54010000  1
  H  H12  1  0.97180000  0.51090000  0.53690000  1
  S+  S13  1  0.03130000  0.82790000  0.88760000  0.625
  Te+  Te14  1  0.03130000  0.82790000  0.88760000  0.125
  Po+  Po15  1  0.03130000  0.82790000  0.88760000  0.125
  O+  O16  1  0.03130000  0.82790000  0.88760000  0.125
  O  O17  1  0.00790000  0.06240000  0.54030000  1
  O  O18  1  0.16320000  0.46870000  0.18680000  1
  O  O19  1  0.30900000  0.77440000  0.56080000  1
  O  O20  1  0.31420000  0.15890000  0.89910000  1
  O  O21  1  0.35080000  0.53420000  0.87750000  1
  O  O22  1  0.38390000  0.92410000  0.19440000  1
  O  O23  1  0.53400000  0.27010000  0.53420000  1
  O  O24  1  0.54590000  0.43440000  0.18750000  1
  O  O25  1  0.64730000  0.87430000  0.86530000  1
  O  O26  1  0.81920000  0.75600000  0.17380000  1
  O  O27  1  0.83540000  0.35710000  0.87010000  1
  Lv+  Lv28  1  0.87080000  0.13510000  0.17200000  0.5
  Te+  Te29  1  0.87080000  0.13510000  0.17200000  0.125
  Se+  Se30  1  0.87080000  0.13510000  0.17200000  0.25
  S+  S31  1  0.87080000  0.13510000  0.17200000  0.125
  O  O32  1  0.85160000  0.55970000  0.50170000  1
