# generated using pymatgen
data_Fr0.16666667Cs0.5Rb0.16666667K0.16666667Na0.83333333Si0.16666667Ge0.5H24.1
_symmetry_space_group_name_H-M  'P 1'
_cell_length_a   7.86400000
_cell_length_b   8.05400000
_cell_length_c   9.89300000
_cell_angle_alpha   70.04000000
_cell_angle_beta   73.31000000
_cell_angle_gamma   83.69000000
_symmetry_Int_Tables_number   1
_chemical_formula_structural
;
Fr0.16666667Cs0.5Rb0.16666667K0.16666667Na0.83333333Si0.16666667Ge0.5H
24.16666667C25Fl0.33333333S1N2O3
;
_chemical_formula_sum
;
Fr0.16666667 Cs0.5 Rb0.16666667 K0.16666667 Na0.83333333 Si0.16666667
Ge0.5 H24.16666667 C25 Fl0.33333333 S1 N2 O3
;
_cell_volume   564.09104623
_cell_formula_units_Z   1
loop_
 _symmetry_equiv_pos_site_id
 _symmetry_equiv_pos_as_xyz
  1  'x, y, z'
loop_
 _atom_site_type_symbol
 _atom_site_label
 _atom_site_symmetry_multiplicity
 _atom_site_fract_x
 _atom_site_fract_y
 _atom_site_fract_z
 _atom_site_occupancy
  Na+  Na0  1  0.27010000  0.71460000  0.77590000
  0.3333333333333333
  Fr+  Fr1  1  0.27010000  0.71460000  0.77590000
  0.16666666666666666
  Rb+  Rb2  1  0.27010000  0.71460000  0.77590000
  0.16666666666666666
  Cs+  Cs3  1  0.27010000  0.71460000  0.77590000
  0.3333333333333333
  K+  K4  1  0.50850000  0.50420000  0.64610000  0.16666666666666666
  Na+  Na5  1  0.50850000  0.50420000  0.64610000  0.5
  Cs+  Cs6  1  0.50850000  0.50420000  0.64610000
  0.16666666666666666
  H+  H7  1  0.50850000  0.50420000  0.64610000  0.16666666666666666
  H  H8  1  0.01030000  0.39440000  0.79160000  1.0
  H  H9  1  0.03140000  0.31490000  0.42250000  1.0
  H  H10  1  0.09350000  0.50350000  0.39910000  1.0
  H  H11  1  0.12180000  0.87290000  0.32650000  1.0
  H  H12  1  0.21410000  0.21150000  0.82030000  1.0
  H  H13  1  0.23160000  0.83560000  0.04580000  1.0
  H  H14  1  0.25650000  0.16600000  0.09170000  1.0
  H  H15  1  0.32270000  0.27680000  0.38290000  1.0
  H  H16  1  0.39280000  0.73580000  0.34710000  1.0
  H  H17  1  0.48790000  0.07330000  0.82650000  1.0
  H  H18  1  0.52120000  0.69230000  0.00440000  1.0
  H  H19  1  0.56760000  0.17850000  0.04200000  1.0
  H  H20  1  0.59030000  0.60630000  0.47660000  1.0
  H  H21  1  0.59650000  0.13860000  0.38920000  1.0
  H  H22  1  0.60110000  0.68590000  0.59800000  1.0
  H  H23  1  0.69270000  0.44910000  0.98840000  1.0
  H  H24  1  0.76150000  0.97380000  0.71030000  1.0
  H  H25  1  0.79610000  0.55070000  0.14980000  1.0
  H  H26  1  0.84340000  0.98950000  0.42380000  1.0
  H  H27  1  0.85370000  0.42650000  0.71670000  1.0
  H  H28  1  0.89870000  0.44440000  0.48990000  1.0
  H  H29  1  0.90600000  0.23360000  0.80180000  1.0
  H  H30  1  0.97310000  0.30290000  0.13900000  1.0
  H  H31  1  0.99910000  0.85170000  0.75530000  1.0
  C  C32  1  0.02030000  0.40560000  0.46720000  1.0
  C  C33  1  0.02490000  0.40970000  0.12030000  1.0
  C  C34  1  0.03360000  0.87590000  0.53890000  1.0
  C  C35  1  0.07800000  0.82840000  0.67350000  1.0
  C  C36  1  0.15150000  0.84110000  0.41660000  1.0
  C  C37  1  0.17980000  0.72880000  0.06450000  1.0
  C  C38  1  0.20840000  0.42080000  0.08590000  1.0
  C  C39  1  0.24040000  0.74630000  0.68580000  1.0
  C  C40  1  0.28590000  0.58040000  0.05800000  1.0
  C  C41  1  0.29080000  0.19690000  0.73390000  1.0
  C  C42  1  0.31050000  0.27030000  0.07650000  1.0
  C  C43  1  0.31390000  0.75900000  0.42890000  1.0
  C  C44  1  0.35580000  0.23600000  0.47190000  1.0
  C  C45  1  0.45480000  0.11410000  0.73760000  1.0
  C  C46  1  0.46710000  0.58680000  0.02290000  1.0
  C  C47  1  0.49640000  0.27820000  0.04390000  1.0
  C  C48  1  0.51990000  0.15320000  0.47560000  1.0
  C  C49  1  0.52950000  0.61890000  0.57180000  1.0
  C  C50  1  0.56940000  0.09220000  0.60850000  1.0
  C  C51  1  0.56980000  0.44010000  0.01460000  1.0
  C  C52  1  0.73900000  0.00450000  0.61750000  1.0
  C  C53  1  0.86240000  0.96300000  0.51760000  1.0
  Ge+  Ge54  1  0.24130000  0.25790000  0.60100000  0.5
  Fl+  Fl55  1  0.24130000  0.25790000  0.60100000
  0.3333333333333333
  Si+  Si56  1  0.24130000  0.25790000  0.60100000
  0.16666666666666666
  C  C57  1  0.91880000  0.55810000  0.12680000  1.0
  C  C58  1  0.95060000  0.34900000  0.73980000  1.0
  C  C59  1  0.99630000  0.71770000  0.09880000  1.0
  S  S60  1  0.84070000  0.87530000  0.11220000  1.0
  N  N61  1  0.07570000  0.33730000  0.60120000  1.0
  N  N62  1  0.35840000  0.71160000  0.56350000  1.0
  O  O63  1  0.70190000  0.80900000  0.24690000  1.0
  O  O64  1  0.78130000  0.92700000  0.97240000  1.0
  O  O65  1  0.93290000  0.02150000  0.11220000  1.0
