# generated using pymatgen
data_Fr0.25Rb0.16666667K0.16666667Na0.25Li1.16666667Co1H16C14N2O5
_symmetry_space_group_name_H-M  'P 1'
_cell_length_a   5.67990000
_cell_length_b   6.96410000
_cell_length_c   10.47900000
_cell_angle_alpha   88.72500000
_cell_angle_beta   98.58700000
_cell_angle_gamma   94.90200000
_symmetry_Int_Tables_number   1
_chemical_formula_structural
Fr0.25Rb0.16666667K0.16666667Na0.25Li1.16666667Co1H16C14N2O5
_chemical_formula_sum
'Fr0.25 Rb0.16666667 K0.16666667 Na0.25 Li1.16666667 Co1 H16 C14 N2 O5'
_cell_volume   408.33643622
_cell_formula_units_Z   1
loop_
 _symmetry_equiv_pos_site_id
 _symmetry_equiv_pos_as_xyz
  1  'x, y, z'
loop_
 _atom_site_type_symbol
 _atom_site_label
 _atom_site_symmetry_multiplicity
 _atom_site_fract_x
 _atom_site_fract_y
 _atom_site_fract_z
 _atom_site_occupancy
  Na+  Na0  1  0.37780000  0.95000000  0.83600000  0.25
  Li+  Li1  1  0.37780000  0.95000000  0.83600000
  0.3333333333333333
  Fr+  Fr2  1  0.37780000  0.95000000  0.83600000  0.25
  Rb+  Rb3  1  0.37780000  0.95000000  0.83600000
  0.16666666666666666
  K+  K4  1  0.45850000  0.84190000  0.98750000  0.16666666666666666
  Li+  Li5  1  0.45850000  0.84190000  0.98750000
  0.8333333333333334
  Co  Co6  1  0.00100000  0.00000000  0.00000000  1.0
  H  H7  1  0.00870000  0.64030000  0.80170000  1.0
  H  H8  1  0.04750000  0.94520000  0.64600000  1.0
  H  H9  1  0.10760000  0.63880000  0.18880000  1.0
  H  H10  1  0.12990000  0.31750000  0.20400000  1.0
  H  H11  1  0.13550000  0.92840000  0.43760000  1.0
  H  H12  1  0.24810000  0.33190000  0.89530000  1.0
  H  H13  1  0.25960000  0.65450000  0.88780000  1.0
  H  H14  1  0.31730000  0.65740000  0.10830000  1.0
  H  H15  1  0.34130000  0.33600000  0.11920000  1.0
  H  H16  1  0.41370000  0.14190000  0.50700000  1.0
  H  H17  1  0.50170000  0.12510000  0.29860000  1.0
  H  H18  1  0.63700000  0.34880000  0.96420000  1.0
  H  H19  1  0.66060000  0.64770000  0.92410000  1.0
  H  H20  1  0.71210000  0.67600000  0.07460000  1.0
  H  H21  1  0.74630000  0.38000000  0.10870000  1.0
  H  H22  1  0.99070000  0.31760000  0.81390000  1.0
  C  C23  1  0.08800000  0.37300000  0.89000000  1.0
  C  C24  1  0.09500000  0.60200000  0.88400000  1.0
  C  C25  1  0.15700000  0.59700000  0.11000000  1.0
  C  C26  1  0.18200000  0.37100000  0.12500000  1.0
  C  C27  1  0.55800000  0.09900000  0.49300000  1.0
  C  C28  1  0.61100000  0.08900000  0.36800000  1.0
  C  C29  1  0.65600000  0.05300000  0.72830000  1.0
  C  C30  1  0.72200000  0.04500000  0.59720000  1.0
  C  C31  1  0.76800000  0.61900000  0.00200000  1.0
  C  C32  1  0.77200000  0.41000000  0.02100000  1.0
  C  C33  1  0.82700000  0.02500000  0.34740000  1.0
  C  C34  1  0.90500000  0.01500000  0.21920000  1.0
  C  C35  1  0.93800000  0.98100000  0.57640000  1.0
  C  C36  1  0.99100000  0.97100000  0.45200000  1.0
  N  N37  1  0.98700000  0.69200000  0.99200000  1.0
  N  N38  1  0.99200000  0.31600000  0.99800000  1.0
  O  O39  1  0.11500000  0.98200000  0.21200000  1.0
  O  O40  1  0.33200000  0.97200000  0.94700000  1.0
  O  O41  1  0.47600000  0.11300000  0.76600000  1.0
  O  O42  1  0.73500000  0.04100000  0.13100000  1.0
  O  O43  1  0.83800000  0.98800000  0.83100000  1.0
