# generated using pymatgen
data_Hf7Zr20.5Ti1.5Rf1.0Ir18
_symmetry_space_group_name_H-M  'P 61 2 2'
_cell_length_a   7.93060000
_cell_length_b   7.93060000
_cell_length_c   17.70100000
_cell_angle_alpha   90.00000000
_cell_angle_beta   90.00000000
_cell_angle_gamma   120.00000000
_symmetry_Int_Tables_number   178
_chemical_formula_structural   Hf7Zr20.5Ti1.5Rf1.0Ir18
_chemical_formula_sum   'Hf7 Zr20.5 Ti1.5 Rf1.0 Ir18'
_cell_volume   964.14094130
_cell_formula_units_Z   1
loop_
 _symmetry_equiv_pos_site_id
 _symmetry_equiv_pos_as_xyz
  1  'x, y, z'
  2  'x-y, x, z+1/6'
  3  '-y, x-y, z+1/3'
  4  '-x, -y, z+1/2'
  5  '-x+y, -x, z+2/3'
  6  'y, -x+y, z+5/6'
  7  '-y, -x, -z+5/6'
  8  '-x, -x+y, -z+2/3'
  9  '-x+y, y, -z+1/2'
  10  'y, x, -z+1/3'
  11  'x, x-y, -z+1/6'
  12  'x-y, -y, -z'
loop_
 _atom_site_type_symbol
 _atom_site_label
 _atom_site_symmetry_multiplicity
 _atom_site_fract_x
 _atom_site_fract_y
 _atom_site_fract_z
 _atom_site_occupancy
  Hf+  Hf0  6  0.25800000  0.62900000  0.58333333  0.5
  Zr+  Zr1  6  0.25800000  0.62900000  0.58333333  0.25
  Ti+  Ti2  6  0.25800000  0.62900000  0.58333333  0.25
  Hf+  Hf3  6  0.00000000  0.24800000  0.33333333
  0.6666666666666666
  Zr+  Zr4  6  0.00000000  0.24800000  0.33333333
  0.16666666666666666
  Rf+  Rf5  6  0.00000000  0.24800000  0.33333333
  0.16666666666666666
  Zr  Zr6  12  0.00620000  0.23840000  0.99373333  1.0
  Zr  Zr7  6  0.31140000  0.65570000  0.08333333  1.0
  Ir  Ir8  12  0.01870000  0.41370000  0.18893333  1.0
  Ir  Ir9  6  0.00000000  0.38890000  0.83333333  1.0
