# generated using pymatgen
data_Ba2.83333333Ra0.16666667Hg3O6
_symmetry_space_group_name_H-M  'P 32 2 1'
_cell_length_a   3.83300000
_cell_length_b   3.83300000
_cell_length_c   18.98999000
_cell_angle_alpha   90.00000000
_cell_angle_beta   90.00000000
_cell_angle_gamma   120.00000000
_symmetry_Int_Tables_number   154
_chemical_formula_structural   Ba2.83333333Ra0.16666667Hg3O6
_chemical_formula_sum   'Ba2.83333333 Ra0.16666667 Hg3 O6'
_cell_volume   241.62007024
_cell_formula_units_Z   1
loop_
 _symmetry_equiv_pos_site_id
 _symmetry_equiv_pos_as_xyz
  1  'x, y, z'
  2  '-y, x-y, z+2/3'
  3  '-x+y, -x, z+1/3'
  4  'y, x, -z'
  5  'x-y, -y, -z+1/3'
  6  '-x, -x+y, -z+2/3'
loop_
 _atom_type_symbol
 _atom_type_oxidation_number
  Ba2+  2.0
  Ra2+  2.0
  Hg2+  2.0
  O2-  -2.0
loop_
 _atom_site_type_symbol
 _atom_site_label
 _atom_site_symmetry_multiplicity
 _atom_site_fract_x
 _atom_site_fract_y
 _atom_site_fract_z
 _atom_site_occupancy
  Ra2+  Ra0  3  0.00000000  0.37100000  0.83336667
  0.05555555555555555
  Ba2+  Ba1  3  0.00000000  0.37100000  0.83336667
  0.9444444444444444
  Hg2+  Hg2  3  0.00000000  0.37500000  0.33333333  1.0
  O2-  O3  6  0.00300000  0.37200000  0.23033333  1.0
