# generated using pymatgen
data_FrCsRb2Na2Cu3Po4H24S2Cl9O46Lv2
_symmetry_space_group_name_H-M  'P 32 2 1'
_cell_length_a   10.16590000
_cell_length_b   10.16590000
_cell_length_c   13.16010000
_cell_angle_alpha   90.00000000
_cell_angle_beta   90.00000000
_cell_angle_gamma   120.00000000
_symmetry_Int_Tables_number   154
_chemical_formula_structural   FrCsRb2Na2Cu3Po4H24S2Cl9O46Lv2
_chemical_formula_sum
'Fr1.0 Cs1.0 Rb2.0 Na2.0 Cu3 Po4 H24 S2.0 Cl9 O46 Lv2.0'
_cell_volume   1177.82695126
_cell_formula_units_Z   1
loop_
 _symmetry_equiv_pos_site_id
 _symmetry_equiv_pos_as_xyz
  1  'x, y, z'
  2  '-y, x-y, z+2/3'
  3  '-x+y, -x, z+1/3'
  4  'y, x, -z'
  5  'x-y, -y, -z+1/3'
  6  '-x, -x+y, -z+2/3'
loop_
 _atom_site_type_symbol
 _atom_site_label
 _atom_site_symmetry_multiplicity
 _atom_site_fract_x
 _atom_site_fract_y
 _atom_site_fract_z
 _atom_site_occupancy
  Na+  Na0  6  0.10000000  0.33800000  0.59966667
  0.3333333333333333
  Rb+  Rb1  6  0.10000000  0.33800000  0.59966667
  0.3333333333333333
  Cs+  Cs2  6  0.10000000  0.33800000  0.59966667
  0.16666666666666666
  Fr+  Fr3  6  0.10000000  0.33800000  0.59966667
  0.16666666666666666
  Cu  Cu4  3  0.00000000  0.70337000  0.83336667  1.0
  H  H5  6  0.08130000  0.46700000  0.82700000  1.0
  H  H6  6  0.11200000  0.74000000  0.64700000  1.0
  H  H7  6  0.15200000  0.37200000  0.38566667  1.0
  H  H8  6  0.18500000  0.75100000  0.97500000  1.0
  O+  O9  3  0.00000000  0.47520000  0.83336667  0.3333333333333333
  Po+  Po10  3  0.00000000  0.47520000  0.83336667
  0.6666666666666666
  Cl  Cl11  6  0.17902000  0.54783000  0.14489000  1.0
  Cl  Cl12  3  0.00000000  0.08400000  0.83336667  1.0
  O  O13  6  0.01790000  0.17300000  0.92030000  1.0
  O  O14  6  0.05920000  0.92650000  0.51073333  1.0
  O  O15  6  0.12450000  0.77750000  0.70940000  1.0
  O  O16  6  0.12630000  0.47980000  0.04620000  1.0
  O  O17  6  0.18700000  0.80150000  0.91970000  1.0
  Po+  Po18  6  0.06630000  0.45430000  0.21970000
  0.3333333333333333
  S+  S19  6  0.06630000  0.45430000  0.21970000  0.3333333333333333
  Lv+  Lv20  6  0.06630000  0.45430000  0.21970000
  0.3333333333333333
  O  O21  6  0.19160000  0.69370000  0.14650000  1.0
  O  O22  6  0.23840000  0.68160000  0.49773333  1.0
  O  O23  3  0.00000000  0.67200000  0.33333333  1.0
