# generated using pymatgen
data_Ta3C1.5Fl4.5
_symmetry_space_group_name_H-M  'P 62 2 2'
_cell_length_a   4.77300000
_cell_length_b   4.77300000
_cell_length_c   6.55200000
_cell_angle_alpha   90.00000000
_cell_angle_beta   90.00000000
_cell_angle_gamma   120.00000000
_symmetry_Int_Tables_number   180
_chemical_formula_structural   Ta3C1.5Fl4.5
_chemical_formula_sum   'Ta3 C1.5 Fl4.5'
_cell_volume   129.26691644
_cell_formula_units_Z   1
loop_
 _symmetry_equiv_pos_site_id
 _symmetry_equiv_pos_as_xyz
  1  'x, y, z'
  2  'x-y, x, z+1/3'
  3  '-y, x-y, z+2/3'
  4  '-x, -y, z'
  5  '-x+y, -x, z+1/3'
  6  'y, -x+y, z+2/3'
  7  '-y, -x, -z+2/3'
  8  '-x, -x+y, -z+1/3'
  9  '-x+y, y, -z'
  10  'y, x, -z+2/3'
  11  'x, x-y, -z+1/3'
  12  'x-y, -y, -z'
loop_
 _atom_site_type_symbol
 _atom_site_label
 _atom_site_symmetry_multiplicity
 _atom_site_fract_x
 _atom_site_fract_y
 _atom_site_fract_z
 _atom_site_occupancy
  Ta  Ta0  3  0.00000000  0.50000000  0.16666667  1.0
  C+  C1  6  0.16700000  0.33400000  0.50000000  0.25
  Fl+  Fl2  6  0.16700000  0.33400000  0.50000000  0.75
