# generated using pymatgen
data_Cr0.66666667Mo0.33333333Sg1Ds0.66666667Ni2Pt1.33333333
_symmetry_space_group_name_H-M  'I m m m'
_cell_length_a   2.76500000
_cell_length_b   8.29600000
_cell_length_c   3.93800000
_cell_angle_alpha   90.00000000
_cell_angle_beta   90.00000000
_cell_angle_gamma   90.00000000
_symmetry_Int_Tables_number   71
_chemical_formula_structural
Cr0.66666667Mo0.33333333Sg1Ds0.66666667Ni2Pt1.33333333
_chemical_formula_sum
'Cr0.66666667 Mo0.33333333 Sg1 Ds0.66666667 Ni2 Pt1.33333333'
_cell_volume   90.33157672
_cell_formula_units_Z   1
loop_
 _symmetry_equiv_pos_site_id
 _symmetry_equiv_pos_as_xyz
  1  'x, y, z'
  2  '-x, -y, -z'
  3  '-x, y, -z'
  4  'x, -y, z'
  5  'x, -y, -z'
  6  '-x, y, z'
  7  '-x, -y, z'
  8  'x, y, -z'
  9  'x+1/2, y+1/2, z+1/2'
  10  '-x+1/2, -y+1/2, -z+1/2'
  11  '-x+1/2, y+1/2, -z+1/2'
  12  'x+1/2, -y+1/2, z+1/2'
  13  'x+1/2, -y+1/2, -z+1/2'
  14  '-x+1/2, y+1/2, z+1/2'
  15  '-x+1/2, -y+1/2, z+1/2'
  16  'x+1/2, y+1/2, -z+1/2'
loop_
 _atom_type_symbol
 _atom_type_oxidation_number
  Cr+  1.0
  Ni+  1.0
  Mo+  1.0
  Pt+  1.0
  Ds+  1.0
  Sg+  1.0
loop_
 _atom_site_type_symbol
 _atom_site_label
 _atom_site_symmetry_multiplicity
 _atom_site_fract_x
 _atom_site_fract_y
 _atom_site_fract_z
 _atom_site_occupancy
  Mo+  Mo0  2  0.00000000  0.00000000  0.00000000
  0.16666666666666666
  Cr+  Cr1  2  0.00000000  0.00000000  0.00000000
  0.3333333333333333
  Sg+  Sg2  2  0.00000000  0.00000000  0.00000000  0.5
  Ds+  Ds3  4  0.00000000  0.35300000  0.00000000
  0.16666666666666666
  Pt+  Pt4  4  0.00000000  0.35300000  0.00000000
  0.3333333333333333
  Ni+  Ni5  4  0.00000000  0.35300000  0.00000000  0.5
