# generated using pymatgen
data_Yb0.33333333Tb3.33333333Ce2Pr0.33333333B4N8
_symmetry_space_group_name_H-M  'I m m m'
_cell_length_a   3.56530000
_cell_length_b   6.31600000
_cell_length_c   10.71300000
_cell_angle_alpha   90.00000000
_cell_angle_beta   90.00000000
_cell_angle_gamma   90.00000000
_symmetry_Int_Tables_number   71
_chemical_formula_structural
Yb0.33333333Tb3.33333333Ce2Pr0.33333333B4N8
_chemical_formula_sum
'Yb0.33333333 Tb3.33333333 Ce2 Pr0.33333333 B4 N8'
_cell_volume   241.23999201
_cell_formula_units_Z   1
loop_
 _symmetry_equiv_pos_site_id
 _symmetry_equiv_pos_as_xyz
  1  'x, y, z'
  2  '-x, -y, -z'
  3  '-x, -y, z'
  4  'x, y, -z'
  5  'x, -y, -z'
  6  '-x, y, z'
  7  '-x, y, -z'
  8  'x, -y, z'
  9  'x+1/2, y+1/2, z+1/2'
  10  '-x+1/2, -y+1/2, -z+1/2'
  11  '-x+1/2, -y+1/2, z+1/2'
  12  'x+1/2, y+1/2, -z+1/2'
  13  'x+1/2, -y+1/2, -z+1/2'
  14  '-x+1/2, y+1/2, z+1/2'
  15  '-x+1/2, y+1/2, -z+1/2'
  16  'x+1/2, -y+1/2, z+1/2'
loop_
 _atom_site_type_symbol
 _atom_site_label
 _atom_site_symmetry_multiplicity
 _atom_site_fract_x
 _atom_site_fract_y
 _atom_site_fract_z
 _atom_site_occupancy
  Yb+  Yb0  4  0.00000000  0.50000000  0.20560000
  0.08333333333333333
  Tb+  Tb1  4  0.00000000  0.50000000  0.20560000
  0.8333333333333334
  Pr+  Pr2  4  0.00000000  0.50000000  0.20560000
  0.08333333333333333
  Ce  Ce3  2  0.00000000  0.00000000  0.00000000  1.0
  B  B4  4  0.00000000  0.14160000  0.50000000  1.0
  N  N5  8  0.00000000  0.25520000  0.38070000  1.0
