# generated using pymatgen
data_Nd12Bi20As2.33333333N3.0Mc2Sb0.66666667
_symmetry_space_group_name_H-M  'I m m m'
_cell_length_a   4.29960000
_cell_length_b   15.20000000
_cell_length_c   19.12100000
_cell_angle_alpha   90.00000000
_cell_angle_beta   90.00000000
_cell_angle_gamma   90.00000000
_symmetry_Int_Tables_number   71
_chemical_formula_structural
Nd12Bi20As2.33333333N3.0Mc2Sb0.66666667
_chemical_formula_sum
'Nd12 Bi20 As2.33333333 N3.0 Mc2 Sb0.66666667'
_cell_volume   1249.63230432
_cell_formula_units_Z   1
loop_
 _symmetry_equiv_pos_site_id
 _symmetry_equiv_pos_as_xyz
  1  'x, y, z'
  2  '-x, -y, -z'
  3  '-x, -y, z'
  4  'x, y, -z'
  5  'x, -y, -z'
  6  '-x, y, z'
  7  '-x, y, -z'
  8  'x, -y, z'
  9  'x+1/2, y+1/2, z+1/2'
  10  '-x+1/2, -y+1/2, -z+1/2'
  11  '-x+1/2, -y+1/2, z+1/2'
  12  'x+1/2, y+1/2, -z+1/2'
  13  'x+1/2, -y+1/2, -z+1/2'
  14  '-x+1/2, y+1/2, z+1/2'
  15  '-x+1/2, y+1/2, -z+1/2'
  16  'x+1/2, -y+1/2, z+1/2'
loop_
 _atom_site_type_symbol
 _atom_site_label
 _atom_site_symmetry_multiplicity
 _atom_site_fract_x
 _atom_site_fract_y
 _atom_site_fract_z
 _atom_site_occupancy
  Nd  Nd0  8  0.00000000  0.13913000  0.36829000  1.0
  Nd  Nd1  4  0.00000000  0.00000000  0.17266000  1.0
  Bi  Bi2  8  0.00000000  0.21176000  0.19682000  1.0
  Bi  Bi3  8  0.00000000  0.36019000  0.41198000  1.0
  Bi  Bi4  4  0.00000000  0.33521000  0.00000000  1.0
  As+  As5  4  0.00000000  0.50000000  0.19910000
  0.3333333333333333
  N+  N6  4  0.00000000  0.50000000  0.19910000  0.6666666666666666
  N+  N7  2  0.00000000  0.00000000  0.50000000  0.16666666666666666
  Mc+  Mc8  2  0.00000000  0.00000000  0.50000000
  0.8333333333333334
  Sb+  Sb9  2  0.00000000  0.00000000  0.00000000
  0.3333333333333333
  As+  As10  2  0.00000000  0.00000000  0.00000000  0.5
  Mc+  Mc11  2  0.00000000  0.00000000  0.00000000
  0.16666666666666666
