# generated using pymatgen
data_Zr8Co10.5Ir2.5Rh2.5Mt0.5P12
_symmetry_space_group_name_H-M  'P -6 2 m'
_cell_length_a   12.10000000
_cell_length_b   12.10000000
_cell_length_c   3.66200000
_cell_angle_alpha   90.00000000
_cell_angle_beta   90.00000000
_cell_angle_gamma   120.00000000
_symmetry_Int_Tables_number   189
_chemical_formula_structural   Zr8Co10.5Ir2.5Rh2.5Mt0.5P12
_chemical_formula_sum   'Zr8 Co10.5 Ir2.5 Rh2.5 Mt0.5 P12'
_cell_volume   464.32248205
_cell_formula_units_Z   1
loop_
 _symmetry_equiv_pos_site_id
 _symmetry_equiv_pos_as_xyz
  1  'x, y, z'
  2  '-x+y, -x, -z'
  3  '-y, x-y, z'
  4  'x, y, -z'
  5  '-x+y, -x, z'
  6  '-y, x-y, -z'
  7  'y, x, z'
  8  '-x, -x+y, -z'
  9  'x-y, -y, z'
  10  'y, x, -z'
  11  '-x, -x+y, z'
  12  'x-y, -y, -z'
loop_
 _atom_site_type_symbol
 _atom_site_label
 _atom_site_symmetry_multiplicity
 _atom_site_fract_x
 _atom_site_fract_y
 _atom_site_fract_z
 _atom_site_occupancy
  Zr  Zr0  3  0.00000000  0.17560000  0.50000000  1.0
  Zr  Zr1  3  0.00000000  0.55460000  0.00000000  1.0
  Zr  Zr2  2  0.33333333  0.66666667  0.00000000  1.0
  Co  Co3  6  0.12680000  0.48340000  0.50000000  1.0
  Co  Co4  3  0.00000000  0.72060000  0.50000000  1.0
  Co  Co5  1  0.00000000  0.00000000  0.00000000  1.0
  Ir+  Ir6  6  0.17760000  0.80420000  0.00000000
  0.4166666666666667
  Rh+  Rh7  6  0.17760000  0.80420000  0.00000000
  0.4166666666666667
  Co+  Co8  6  0.17760000  0.80420000  0.00000000
  0.08333333333333333
  Mt+  Mt9  6  0.17760000  0.80420000  0.00000000
  0.08333333333333333
  P  P10  6  0.17730000  0.69030000  0.50000000  1.0
  P  P11  3  0.00000000  0.34680000  0.00000000  1.0
  P  P12  3  0.00000000  0.82090000  0.00000000  1.0
