# generated using pymatgen
data_Cs3Al3At1.5I1.0Br3.5Cl4F1.0Ts1
_symmetry_space_group_name_H-M  'P -6 2 m'
_cell_length_a   9.50000000
_cell_length_b   9.50000000
_cell_length_c   3.71300000
_cell_angle_alpha   90.00000000
_cell_angle_beta   90.00000000
_cell_angle_gamma   120.00000000
_symmetry_Int_Tables_number   189
_chemical_formula_structural   Cs3Al3At1.5I1.0Br3.5Cl4F1.0Ts1
_chemical_formula_sum   'Cs3 Al3 At1.5 I1.0 Br3.5 Cl4 F1.0 Ts1'
_cell_volume   290.20359726
_cell_formula_units_Z   1
loop_
 _symmetry_equiv_pos_site_id
 _symmetry_equiv_pos_as_xyz
  1  'x, y, z'
  2  '-x+y, -x, -z'
  3  '-y, x-y, z'
  4  'x, y, -z'
  5  '-x+y, -x, z'
  6  '-y, x-y, -z'
  7  'y, x, z'
  8  '-x, -x+y, -z'
  9  'x-y, -y, z'
  10  'y, x, -z'
  11  '-x, -x+y, z'
  12  'x-y, -y, -z'
loop_
 _atom_type_symbol
 _atom_type_oxidation_number
  Cs0+  0.0
  Al0+  0.0
  At0+  0.0
  I0+  0.0
  Br0+  0.0
  Cl0+  0.0
  F0+  0.0
  Ts0+  0.0
loop_
 _atom_site_type_symbol
 _atom_site_label
 _atom_site_symmetry_multiplicity
 _atom_site_fract_x
 _atom_site_fract_y
 _atom_site_fract_z
 _atom_site_occupancy
  Cs0+  Cs0  3  0.00000000  0.56940000  0.50000000  1.0
  Al0+  Al1  3  0.00000000  0.21500000  0.00000000  1.0
  Br0+  Br2  6  0.15650000  0.41910000  0.00000000
  0.5833333333333334
  Cl0+  Cl3  6  0.15650000  0.41910000  0.00000000
  0.3333333333333333
  F0+  F4  6  0.15650000  0.41910000  0.00000000
  0.08333333333333333
  I0+  I5  3  0.00000000  0.20680000  0.50000000
  0.16666666666666666
  Cl0+  Cl6  3  0.00000000  0.20680000  0.50000000
  0.3333333333333333
  F0+  F7  3  0.00000000  0.20680000  0.50000000
  0.16666666666666666
  Ts0+  Ts8  3  0.00000000  0.20680000  0.50000000
  0.3333333333333333
  At0+  At9  3  0.00000000  0.84580000  0.00000000  0.5
  Cl0+  Cl10  3  0.00000000  0.84580000  0.00000000
  0.3333333333333333
  I0+  I11  3  0.00000000  0.84580000  0.00000000
  0.16666666666666666
