# generated using pymatgen
data_La0.5Gd0.25Dy2Ho0.25In3Cu0.25Ag1Au1.5Rg0.25
_symmetry_space_group_name_H-M  'P -6 2 m'
_cell_length_a   7.68300000
_cell_length_b   7.68300000
_cell_length_c   3.87700000
_cell_angle_alpha   90.00000000
_cell_angle_beta   90.00000000
_cell_angle_gamma   120.00000000
_symmetry_Int_Tables_number   189
_chemical_formula_structural
La0.5Gd0.25Dy2Ho0.25In3Cu0.25Ag1Au1.5Rg0.25
_chemical_formula_sum
'La0.5 Gd0.25 Dy2 Ho0.25 In3 Cu0.25 Ag1 Au1.5 Rg0.25'
_cell_volume   198.19290305
_cell_formula_units_Z   1
loop_
 _symmetry_equiv_pos_site_id
 _symmetry_equiv_pos_as_xyz
  1  'x, y, z'
  2  '-x+y, -x, -z'
  3  '-y, x-y, z'
  4  'x, y, -z'
  5  '-x+y, -x, z'
  6  '-y, x-y, -z'
  7  'y, x, z'
  8  '-x, -x+y, -z'
  9  'x-y, -y, z'
  10  'y, x, -z'
  11  '-x, -x+y, z'
  12  'x-y, -y, -z'
loop_
 _atom_site_type_symbol
 _atom_site_label
 _atom_site_symmetry_multiplicity
 _atom_site_fract_x
 _atom_site_fract_y
 _atom_site_fract_z
 _atom_site_occupancy
  La+  La0  3  0.00000000  0.58500000  0.50000000
  0.16666666666666666
  Dy+  Dy1  3  0.00000000  0.58500000  0.50000000
  0.6666666666666666
  Gd+  Gd2  3  0.00000000  0.58500000  0.50000000
  0.08333333333333333
  Ho+  Ho3  3  0.00000000  0.58500000  0.50000000
  0.08333333333333333
  In  In4  3  0.00000000  0.24500000  0.00000000  1.0
  Au+  Au5  2  0.33333333  0.66666667  0.00000000  0.25
  Ag+  Ag6  2  0.33333333  0.66666667  0.00000000  0.5
  Cu+  Cu7  2  0.33333333  0.66666667  0.00000000  0.125
  Rg+  Rg8  2  0.33333333  0.66666667  0.00000000  0.125
  Au  Au9  1  0.00000000  0.00000000  0.50000000  1.0
