# generated using pymatgen
data_Na2.16666667P8H37.83333333S16N8O4
_symmetry_space_group_name_H-M  'P b a m'
_cell_length_a   8.07900000
_cell_length_b   14.33700000
_cell_length_c   8.68100000
_cell_angle_alpha   90.00000000
_cell_angle_beta   90.00000000
_cell_angle_gamma   90.00000000
_symmetry_Int_Tables_number   55
_chemical_formula_structural   Na2.16666667P8H37.83333333S16N8O4
_chemical_formula_sum   'Na2.16666667 P8 H37.83333333 S16 N8 O4'
_cell_volume   1005.50827626
_cell_formula_units_Z   1
loop_
 _symmetry_equiv_pos_site_id
 _symmetry_equiv_pos_as_xyz
  1  'x, y, z'
  2  '-x, -y, -z'
  3  '-x, -y, z'
  4  'x, y, -z'
  5  'x+1/2, -y+1/2, -z'
  6  '-x+1/2, y+1/2, z'
  7  '-x+1/2, y+1/2, -z'
  8  'x+1/2, -y+1/2, z'
loop_
 _atom_type_symbol
 _atom_type_oxidation_number
  Na0+  0.0
  P0+  0.0
  H0+  0.0
  S0+  0.0
  N0+  0.0
  O0+  0.0
loop_
 _atom_site_type_symbol
 _atom_site_label
 _atom_site_symmetry_multiplicity
 _atom_site_fract_x
 _atom_site_fract_y
 _atom_site_fract_z
 _atom_site_occupancy
  Na0+  Na0  4  0.15040000  0.70800000  0.00000000
  0.5416666666666666
  H0+  H1  4  0.15040000  0.70800000  0.00000000  0.4583333333333333
  P0+  P2  8  0.07820000  0.93380000  0.13170000  1.0
  H0+  H3  8  0.02960000  0.64300000  0.08790000  1.0
  H0+  H4  8  0.15750000  0.59740000  0.41120000  1.0
  H0+  H5  8  0.23280000  0.83650000  0.40710000  1.0
  H0+  H6  4  0.10710000  0.33850000  0.50000000  1.0
  H0+  H7  4  0.16500000  0.59220000  0.00000000  1.0
  H0+  H8  4  0.24530000  0.24280000  0.50000000  1.0
  S0+  S9  8  0.04480000  0.17380000  0.21610000  1.0
  S0+  S10  8  0.19750000  0.46040000  0.21240000  1.0
  N0+  N11  4  0.09970000  0.64960000  0.00000000  1.0
  N0+  N12  4  0.21830000  0.30830000  0.50000000  1.0
  O0+  O13  4  0.13920000  0.62410000  0.50000000  1.0
