# generated using pymatgen
data_Ce8Te0.66666667Se0.33333333S4.83333333Lv0.16666667O8
_symmetry_space_group_name_H-M  'P b a m'
_cell_length_a   6.85100000
_cell_length_b   14.52900000
_cell_length_c   3.95800000
_cell_angle_alpha   90.00000000
_cell_angle_beta   90.00000000
_cell_angle_gamma   90.00000000
_symmetry_Int_Tables_number   55
_chemical_formula_structural
Ce8Te0.66666667Se0.33333333S4.83333333Lv0.16666667O8
_chemical_formula_sum
'Ce8 Te0.66666667 Se0.33333333 S4.83333333 Lv0.16666667 O8'
_cell_volume   393.97211248
_cell_formula_units_Z   1
loop_
 _symmetry_equiv_pos_site_id
 _symmetry_equiv_pos_as_xyz
  1  'x, y, z'
  2  '-x, -y, -z'
  3  '-x, -y, z'
  4  'x, y, -z'
  5  'x+1/2, -y+1/2, -z'
  6  '-x+1/2, y+1/2, z'
  7  '-x+1/2, y+1/2, -z'
  8  'x+1/2, -y+1/2, z'
loop_
 _atom_site_type_symbol
 _atom_site_label
 _atom_site_symmetry_multiplicity
 _atom_site_fract_x
 _atom_site_fract_y
 _atom_site_fract_z
 _atom_site_occupancy
  Ce  Ce0  4  0.21230000  0.92243000  0.00000000  1.0
  Ce  Ce1  4  0.21840000  0.16183000  0.50000000  1.0
  S  S2  4  0.01240000  0.28110000  0.00000000  1.0
  Te+  Te3  2  0.00000000  0.50000000  0.50000000
  0.3333333333333333
  Se+  Se4  2  0.00000000  0.50000000  0.50000000
  0.16666666666666666
  S+  S5  2  0.00000000  0.50000000  0.50000000  0.4166666666666667
  Lv+  Lv6  2  0.00000000  0.50000000  0.50000000
  0.08333333333333333
  O  O7  4  0.12800000  0.87600000  0.50000000  1.0
  O  O8  4  0.13700000  0.06940000  0.00000000  1.0
