# generated using pymatgen
data_Rb4V5Cd1Se1.77777778Cl1O13.22222222
_symmetry_space_group_name_H-M  'P 4'
_cell_length_a   9.14210000
_cell_length_b   9.14210000
_cell_length_c   5.52500000
_cell_angle_alpha   90.00000000
_cell_angle_beta   90.00000000
_cell_angle_gamma   90.00000000
_symmetry_Int_Tables_number   75
_chemical_formula_structural   Rb4V5Cd1Se1.77777778Cl1O13.22222222
_chemical_formula_sum   'Rb4 V5 Cd1 Se1.77777778 Cl1 O13.22222222'
_cell_volume   461.76840807
_cell_formula_units_Z   1
loop_
 _symmetry_equiv_pos_site_id
 _symmetry_equiv_pos_as_xyz
  1  'x, y, z'
  2  '-y, x, z'
  3  '-x, -y, z'
  4  'y, -x, z'
loop_
 _atom_type_symbol
 _atom_type_oxidation_number
  Rb+  1.0
  V5+  5.0
  Cd2+  2.0
  Se2-  -2.0
  Cl-  -1.0
  O2-  -2.0
loop_
 _atom_site_type_symbol
 _atom_site_label
 _atom_site_symmetry_multiplicity
 _atom_site_fract_x
 _atom_site_fract_y
 _atom_site_fract_z
 _atom_site_occupancy
  Rb+  Rb0  4  0.16536000  0.32518000  0.93880000  1.0
  V5+  V1  4  0.14267000  0.61730000  0.46130000  1.0
  V5+  V2  1  0.50000000  0.50000000  0.49220000  1.0
  Cd2+  Cd3  1  0.00000000  0.00000000  0.50000000  1.0
  O2-  O4  4  0.14160000  0.61480000  0.16780000  0.5555555555555556
  Se2-  Se5  4  0.14160000  0.61480000  0.16780000
  0.4444444444444444
  Cl-  Cl6  1  0.00000000  0.00000000  0.03660000  1.0
  O2-  O7  4  0.11190000  0.78610000  0.55840000  1.0
  O2-  O8  4  0.31040000  0.55760000  0.58150000  1.0
  O2-  O9  2  0.00000000  0.50000000  0.57460000  1.0
  O2-  O10  1  0.50000000  0.50000000  0.20430000  1.0
