# generated using pymatgen
data_Cr12Si5Sn4Ge7Pb4Br6(Cl2F33)2
_symmetry_space_group_name_H-M  'I 4 c m'
_cell_length_a   14.38400000
_cell_length_b   14.38400000
_cell_length_c   7.40800000
_cell_angle_alpha   90.00000000
_cell_angle_beta   90.00000000
_cell_angle_gamma   90.00000000
_symmetry_Int_Tables_number   108
_chemical_formula_structural   Cr12Si5Sn4Ge7Pb4Br6(Cl2F33)2
_chemical_formula_sum   'Cr12 Si5 Sn4 Ge7 Pb4 Br6 Cl4 F66'
_cell_volume   1532.71117005
_cell_formula_units_Z   1
loop_
 _symmetry_equiv_pos_site_id
 _symmetry_equiv_pos_as_xyz
  1  'x, y, z'
  2  '-y, x, z'
  3  '-x, -y, z'
  4  'y, -x, z'
  5  '-x, y, z+1/2'
  6  'y, x, z+1/2'
  7  'x, -y, z+1/2'
  8  '-y, -x, z+1/2'
  9  'x+1/2, y+1/2, z+1/2'
  10  '-y+1/2, x+1/2, z+1/2'
  11  '-x+1/2, -y+1/2, z+1/2'
  12  'y+1/2, -x+1/2, z+1/2'
  13  '-x+1/2, y+1/2, z'
  14  'y+1/2, x+1/2, z'
  15  'x+1/2, -y+1/2, z'
  16  '-y+1/2, -x+1/2, z'
loop_
 _atom_type_symbol
 _atom_type_oxidation_number
  Cr0+  0.0
  Si0+  0.0
  Sn0+  0.0
  Ge0+  0.0
  Pb0+  0.0
  Br0+  0.0
  Cl0+  0.0
  F0+  0.0
loop_
 _atom_site_type_symbol
 _atom_site_label
 _atom_site_symmetry_multiplicity
 _atom_site_fract_x
 _atom_site_fract_y
 _atom_site_fract_z
 _atom_site_occupancy
  Cr0+  Cr0  8  0.16320000  0.33680000  0.98930000  1.0
  Cr0+  Cr1  4  0.00000000  0.00000000  0.17990000  1.0
  Ge0+  Ge2  16  0.07360000  0.22730000  0.50000000  0.4375
  Sn0+  Sn3  16  0.07360000  0.22730000  0.50000000  0.25
  Si0+  Si4  16  0.07360000  0.22730000  0.50000000  0.3125
  Pb0+  Pb5  4  0.00000000  0.50000000  0.15080000  1.0
  Cl0+  Cl6  8  0.24770000  0.25230000  0.55710000  0.25
  Br0+  Br7  8  0.24770000  0.25230000  0.55710000  0.75
  Cl0+  Cl8  8  0.11440000  0.38560000  0.51950000  0.25
  F0+  F9  8  0.11440000  0.38560000  0.51950000  0.75
  F0+  F10  16  0.05690000  0.11530000  0.68750000  1.0
  F0+  F11  16  0.06910000  0.30160000  0.16550000  1.0
  F0+  F12  16  0.10850000  0.24880000  0.82740000  1.0
  F0+  F13  8  0.07200000  0.42800000  0.91720000  1.0
  F0+  F14  4  0.00000000  0.00000000  0.43230000  1.0
