# generated using pymatgen
data_Na3.5Li12Be16B32H112.5
_symmetry_space_group_name_H-M  'I 41 c d'
_cell_length_a   13.62000000
_cell_length_b   13.62000000
_cell_length_c   9.10000000
_cell_angle_alpha   90.00000000
_cell_angle_beta   90.00000000
_cell_angle_gamma   90.00000000
_symmetry_Int_Tables_number   110
_chemical_formula_structural   Na3.5Li12Be16B32H112.5
_chemical_formula_sum   'Na3.5 Li12 Be16 B32 H112.5'
_cell_volume   1688.09004000
_cell_formula_units_Z   1
loop_
 _symmetry_equiv_pos_site_id
 _symmetry_equiv_pos_as_xyz
  1  'x, y, z'
  2  '-y+1/2, x, z+3/4'
  3  '-x, -y, z'
  4  'y+1/2, -x, z+3/4'
  5  '-x, y, z+1/2'
  6  'y+1/2, x, z+1/4'
  7  'x, -y, z+1/2'
  8  '-y+1/2, -x, z+1/4'
  9  'x+1/2, y+1/2, z+1/2'
  10  '-y, x+1/2, z+1/4'
  11  '-x+1/2, -y+1/2, z+1/2'
  12  'y, -x+1/2, z+1/4'
  13  '-x+1/2, y+1/2, z'
  14  'y, x+1/2, z+3/4'
  15  'x+1/2, -y+1/2, z'
  16  '-y, -x+1/2, z+3/4'
loop_
 _atom_type_symbol
 _atom_type_oxidation_number
  Na0+  0.0
  Li0+  0.0
  Be0+  0.0
  B0+  0.0
  H0+  0.0
loop_
 _atom_site_type_symbol
 _atom_site_label
 _atom_site_symmetry_multiplicity
 _atom_site_fract_x
 _atom_site_fract_y
 _atom_site_fract_z
 _atom_site_occupancy
  Li0+  Li0  16  0.10120000  0.28070000  0.70820000  0.75
  H0+  H1  16  0.10120000  0.28070000  0.70820000  0.03125
  Na0+  Na2  16  0.10120000  0.28070000  0.70820000  0.21875
  Be0+  Be3  16  0.08690000  0.30020000  0.25000000  1.0
  B0+  B4  16  0.04910000  0.33620000  0.75900000  1.0
  B0+  B5  16  0.13860000  0.19350000  0.12040000  1.0
  H0+  H6  16  0.00330000  0.29310000  0.84820000  1.0
  H0+  H7  16  0.00830000  0.35870000  0.16590000  1.0
  H0+  H8  16  0.06870000  0.40450000  0.80980000  1.0
  H0+  H9  16  0.08990000  0.18500000  0.22610000  1.0
  H0+  H10  16  0.10540000  0.84360000  0.52520000  1.0
  H0+  H11  16  0.14500000  0.27140000  0.10150000  1.0
  H0+  H12  16  0.16260000  0.28780000  0.39040000  1.0
