# generated using pymatgen
data_SrV2NiPdO8
_symmetry_space_group_name_H-M  'I 41 c d'
_cell_length_a   12.16170000
_cell_length_b   12.16170000
_cell_length_c   8.32470000
_cell_angle_alpha   90.00000000
_cell_angle_beta   90.00000000
_cell_angle_gamma   90.00000000
_symmetry_Int_Tables_number   110
_chemical_formula_structural   SrV2NiPdO8
_chemical_formula_sum   'Sr8 V16 Ni8 Pd8 O64'
_cell_volume   1231.28096078
_cell_formula_units_Z   8
loop_
 _symmetry_equiv_pos_site_id
 _symmetry_equiv_pos_as_xyz
  1  'x, y, z'
  2  '-y+1/2, x, z+3/4'
  3  '-x, -y, z'
  4  'y+1/2, -x, z+3/4'
  5  '-x, y, z+1/2'
  6  'y+1/2, x, z+1/4'
  7  'x, -y, z+1/2'
  8  '-y+1/2, -x, z+1/4'
  9  'x+1/2, y+1/2, z+1/2'
  10  '-y, x+1/2, z+1/4'
  11  '-x+1/2, -y+1/2, z+1/2'
  12  'y, -x+1/2, z+1/4'
  13  '-x+1/2, y+1/2, z'
  14  'y, x+1/2, z+3/4'
  15  'x+1/2, -y+1/2, z'
  16  '-y, -x+1/2, z+3/4'
loop_
 _atom_type_symbol
 _atom_type_oxidation_number
  Sr2+  2.0
  V5+  5.0
  Ni2+  2.0
  Pd2+  2.0
  O2-  -2.0
loop_
 _atom_site_type_symbol
 _atom_site_label
 _atom_site_symmetry_multiplicity
 _atom_site_fract_x
 _atom_site_fract_y
 _atom_site_fract_z
 _atom_site_occupancy
  Sr2+  Sr0  8  0.00000000  0.00000000  0.00000000  1.0
  V5+  V1  16  0.08020000  0.24040000  0.35150000  1.0
  Ni2+  Ni2  16  0.16550000  0.32830000  0.97940000  0.5
  Pd2+  Pd3  16  0.16550000  0.32830000  0.97940000  0.5
  O2-  O4  16  0.00100000  0.15300000  0.76300000  1.0
  O2-  O5  16  0.00300000  0.33200000  0.95400000  1.0
  O2-  O6  16  0.15000000  0.17200000  0.48800000  1.0
  O2-  O7  16  0.16400000  0.32200000  0.22500000  1.0
