# generated using pymatgen
data_Bi15Sb7As5P5H112C32(N5O3)16
_symmetry_space_group_name_H-M  'F d d 2'
_cell_length_a   18.54730000
_cell_length_b   30.70900000
_cell_length_c   5.48810000
_cell_angle_alpha   90.00000000
_cell_angle_beta   90.00000000
_cell_angle_gamma   90.00000000
_symmetry_Int_Tables_number   43
_chemical_formula_structural   Bi15Sb7As5P5H112C32(N5O3)16
_chemical_formula_sum   'Bi15 Sb7 As5 P5 H112 C32 N80 O48'
_cell_volume   3125.85182483
_cell_formula_units_Z   1
loop_
 _symmetry_equiv_pos_site_id
 _symmetry_equiv_pos_as_xyz
  1  'x, y, z'
  2  '-x, -y, z'
  3  '-x+1/4, y+3/4, z+3/4'
  4  'x+1/4, -y+3/4, z+3/4'
  5  'x, y+1/2, z+1/2'
  6  '-x, -y+1/2, z+1/2'
  7  '-x+1/4, y+1/4, z+1/4'
  8  'x+1/4, -y+1/4, z+1/4'
  9  'x+1/2, y, z+1/2'
  10  '-x+1/2, -y, z+1/2'
  11  '-x+3/4, y+3/4, z+1/4'
  12  'x+3/4, -y+3/4, z+1/4'
  13  'x+1/2, y+1/2, z'
  14  '-x+1/2, -y+1/2, z'
  15  '-x+3/4, y+1/4, z+3/4'
  16  'x+3/4, -y+1/4, z+3/4'
loop_
 _atom_site_type_symbol
 _atom_site_label
 _atom_site_symmetry_multiplicity
 _atom_site_fract_x
 _atom_site_fract_y
 _atom_site_fract_z
 _atom_site_occupancy
  Bi+  Bi0  16  0.04472000  0.28047000  0.04690000  0.9375
  As+  As1  16  0.04472000  0.28047000  0.04690000  0.0625
  Sb+  Sb2  16  0.10655000  0.18275000  0.80800000  0.4375
  P+  P3  16  0.10655000  0.18275000  0.80800000  0.3125
  As+  As4  16  0.10655000  0.18275000  0.80800000  0.25
  H  H5  16  0.06400000  0.17120000  0.81900000  1.0
  H  H6  16  0.06420000  0.35290000  0.90600000  1.0
  H  H7  16  0.07900000  0.34480000  0.62600000  1.0
  H  H8  16  0.07930000  0.03210000  0.23600000  1.0
  H  H9  16  0.08160000  0.48650000  0.76600000  1.0
  H  H10  16  0.11000000  0.09780000  0.51400000  1.0
  H  H11  16  0.11390000  0.42560000  0.19400000  1.0
  C  C12  16  0.08930000  0.33999000  0.78940000  1.0
  C  C13  16  0.11524000  0.25992000  0.74380000  1.0
  N  N14  16  0.00502000  0.08453000  0.93460000  1.0
  N  N15  16  0.04798000  0.23886000  0.05700000  1.0
  N  N16  16  0.08602000  0.29420000  0.85850000  1.0
  N  N17  16  0.09113000  0.22555000  0.87010000  1.0
  N  N18  16  0.09208000  0.00953000  0.30610000  1.0
  O  O19  16  0.01125000  0.38590000  0.28360000  1.0
  O  O20  16  0.03474000  0.44609000  0.46470000  1.0
  O  O21  16  0.06170000  0.08837000  0.05100000  1.0
