# generated using pymatgen
data_H208C170Fl3Sn3N16O32Lv12Se4
_symmetry_space_group_name_H-M  'F d d 2'
_cell_length_a   19.73060000
_cell_length_b   28.76320000
_cell_length_c   7.19060000
_cell_angle_alpha   90.00000000
_cell_angle_beta   90.00000000
_cell_angle_gamma   90.00000000
_symmetry_Int_Tables_number   43
_chemical_formula_structural   H208C170Fl3Sn3N16O32Lv12Se4
_chemical_formula_sum   'H208 C170 Fl3 Sn3 N16 O32 Lv12 Se4'
_cell_volume   4080.77475340
_cell_formula_units_Z   1
loop_
 _symmetry_equiv_pos_site_id
 _symmetry_equiv_pos_as_xyz
  1  'x, y, z'
  2  '-x, -y, z'
  3  '-x+1/4, y+3/4, z+3/4'
  4  'x+1/4, -y+3/4, z+3/4'
  5  'x, y+1/2, z+1/2'
  6  '-x, -y+1/2, z+1/2'
  7  '-x+1/4, y+1/4, z+1/4'
  8  'x+1/4, -y+1/4, z+1/4'
  9  'x+1/2, y, z+1/2'
  10  '-x+1/2, -y, z+1/2'
  11  '-x+3/4, y+3/4, z+1/4'
  12  'x+3/4, -y+3/4, z+1/4'
  13  'x+1/2, y+1/2, z'
  14  '-x+1/2, -y+1/2, z'
  15  '-x+3/4, y+1/4, z+3/4'
  16  'x+3/4, -y+1/4, z+3/4'
loop_
 _atom_site_type_symbol
 _atom_site_label
 _atom_site_symmetry_multiplicity
 _atom_site_fract_x
 _atom_site_fract_y
 _atom_site_fract_z
 _atom_site_occupancy
  H  H0  16  0.00520000  0.36270000  0.65320000  1.0
  H  H1  16  0.01320000  0.31520000  0.05000000  1.0
  H  H2  16  0.02090000  0.32550000  0.50000000  1.0
  H  H3  16  0.03390000  0.13620000  0.96350000  1.0
  H  H4  16  0.04650000  0.46200000  0.38950000  1.0
  H  H5  16  0.05360000  0.45970000  0.60810000  1.0
  H  H6  16  0.05480000  0.08350000  0.50370000  1.0
  H  H7  16  0.10330000  0.39350000  0.39760000  1.0
  H  H8  16  0.10350000  0.18580000  0.73570000  1.0
  H  H9  16  0.10880000  0.02720000  0.91940000  1.0
  H  H10  16  0.11050000  0.26110000  0.36160000  1.0
  H  H11  16  0.11460000  0.15440000  0.34430000  1.0
  H  H12  16  0.11800000  0.26490000  0.73890000  1.0
  C  C13  16  0.02857000  0.01499000  0.49410000  1.0
  C+  C14  16  0.01776000  0.06349000  0.49970000  0.625
  Fl+  Fl15  16  0.01776000  0.06349000  0.49970000  0.1875
  Sn+  Sn16  16  0.01776000  0.06349000  0.49970000  0.1875
  C  C17  16  0.01401000  0.15598000  0.05600000  1.0
  C  C18  16  0.04641000  0.41856000  0.99950000  1.0
  C  C19  16  0.05856000  0.36756000  0.01380000  1.0
  C  C20  16  0.06086000  0.23214000  0.13770000  1.0
  C  C21  16  0.07849000  0.46030000  0.49180000  1.0
  C  C22  16  0.09437000  0.49549000  0.99100000  1.0
  C  C23  16  0.10305000  0.44829000  0.99110000  1.0
  C  C24  16  0.12205000  0.25109000  0.23680000  1.0
  C  C25  16  0.12448000  0.41733000  0.47340000  1.0
  N  N26  16  0.06541000  0.18598000  0.13300000  1.0
  O  O27  16  0.00297000  0.34264000  0.03710000  1.0
  Lv+  Lv28  16  0.11453000  0.35088000  0.00820000  0.75
  Se+  Se29  16  0.11453000  0.35088000  0.00820000  0.25
  O  O30  16  0.01283000  0.25444000  0.07020000  1.0
