# generated using pymatgen
data_Cs1Rb3.5Na3.5Bi1Sb1As0.5P0.5H8N10.5Mc2.5
_symmetry_space_group_name_H-M  'P m n a'
_cell_length_a   8.91700000
_cell_length_b   3.77610000
_cell_length_c   8.63900000
_cell_angle_alpha   90.00000000
_cell_angle_beta   90.00000000
_cell_angle_gamma   90.00000000
_symmetry_Int_Tables_number   53
_chemical_formula_structural
Cs1Rb3.5Na3.5Bi1Sb1As0.5P0.5H8N10.5Mc2.5
_chemical_formula_sum
'Cs1 Rb3.5 Na3.5 Bi1 Sb1 As0.5 P0.5 H8 N10.5 Mc2.5'
_cell_volume   290.88794768
_cell_formula_units_Z   1
loop_
 _symmetry_equiv_pos_site_id
 _symmetry_equiv_pos_as_xyz
  1  'x, y, z'
  2  '-x, -y, -z'
  3  '-x+1/2, -y, z+1/2'
  4  'x+1/2, y, -z+1/2'
  5  'x, -y, -z'
  6  '-x, y, z'
  7  '-x+1/2, y, -z+1/2'
  8  'x+1/2, -y, z+1/2'
loop_
 _atom_site_type_symbol
 _atom_site_label
 _atom_site_symmetry_multiplicity
 _atom_site_fract_x
 _atom_site_fract_y
 _atom_site_fract_z
 _atom_site_occupancy
  Rb0+  Rb0  8  0.17460000  0.40000000  0.28690000  0.4375
  Cs0+  Cs1  8  0.17460000  0.40000000  0.28690000  0.125
  Na0+  Na2  8  0.17460000  0.40000000  0.28690000  0.4375
  H0+  H3  8  0.21450000  0.33000000  0.82750000  1.0
  Sb+  Sb4  2  0.00000000  0.00000000  0.50000000  0.25
  N+  N5  2  0.00000000  0.00000000  0.50000000  0.25
  Bi+  Bi6  2  0.00000000  0.00000000  0.50000000  0.25
  P+  P7  2  0.00000000  0.00000000  0.50000000  0.25
  N  N8  4  0.13220000  0.00000000  0.00000000  1.0
  N  N9  4  0.25000000  0.45510000  0.75000000  1.0
  Mc+  Mc10  4  0.00000000  0.11010000  0.37233000  0.625
  As+  As11  4  0.00000000  0.11010000  0.37233000  0.125
  Sb+  Sb12  4  0.00000000  0.11010000  0.37233000  0.125
  Bi+  Bi13  4  0.00000000  0.11010000  0.37233000  0.125
  N  N14  2  0.00000000  0.00000000  0.00000000  1.0
