# generated using pymatgen
data_Sb1.33333333As6P0.66666667H28C28N20
_symmetry_space_group_name_H-M  'P 43 21 2'
_cell_length_a   7.80000000
_cell_length_b   7.80000000
_cell_length_c   13.63690000
_cell_angle_alpha   90.00000000
_cell_angle_beta   90.00000000
_cell_angle_gamma   90.00000000
_symmetry_Int_Tables_number   96
_chemical_formula_structural   Sb1.33333333As6P0.66666667H28C28N20
_chemical_formula_sum   'Sb1.33333333 As6 P0.66666667 H28 C28 N20'
_cell_volume   829.66899600
_cell_formula_units_Z   1
loop_
 _symmetry_equiv_pos_site_id
 _symmetry_equiv_pos_as_xyz
  1  'x, y, z'
  2  '-y+1/2, x+1/2, z+3/4'
  3  '-x, -y, z+1/2'
  4  'y+1/2, -x+1/2, z+1/4'
  5  'x+1/2, -y+1/2, -z+1/4'
  6  '-y, -x, -z+1/2'
  7  '-x+1/2, y+1/2, -z+3/4'
  8  'y, x, -z'
loop_
 _atom_site_type_symbol
 _atom_site_label
 _atom_site_symmetry_multiplicity
 _atom_site_fract_x
 _atom_site_fract_y
 _atom_site_fract_z
 _atom_site_occupancy
  As+  As0  8  0.02990000  0.68183000  0.12754000  0.75
  P+  P1  8  0.02990000  0.68183000  0.12754000  0.08333333333333333
  Sb+  Sb2  8  0.02990000  0.68183000  0.12754000
  0.16666666666666666
  H  H3  8  0.06050000  0.32560000  0.58910000  1.0
  H  H4  8  0.08620000  0.74050000  0.54380000  1.0
  H  H5  8  0.10500000  0.38790000  0.37330000  1.0
  H  H6  4  0.02290000  0.02290000  0.50000000  1.0
  C  C7  8  0.02794000  0.23023000  0.02631000  1.0
  C  C8  8  0.04221000  0.80976000  0.19219000  1.0
  C  C9  4  0.05952000  0.94048000  0.75000000  1.0
  C  C10  4  0.06326000  0.06326000  0.00000000  1.0
  C  C11  4  0.19587000  0.80413000  0.75000000  1.0
  N  N12  8  0.07758000  0.09051000  0.30523000  1.0
  N  N13  8  0.14752000  0.64777000  0.77818000  1.0
  N  N14  4  0.18262000  0.81738000  0.25000000  1.0
