# generated using pymatgen
data_Nd16Si4Sn4Ge7H192Pb(C2O5)32
_symmetry_space_group_name_H-M  'F d d d :2'
_cell_length_a   9.62500000
_cell_length_b   15.38100000
_cell_length_c   27.53000000
_cell_angle_alpha   90.00000000
_cell_angle_beta   90.00000000
_cell_angle_gamma   90.00000000
_symmetry_Int_Tables_number   70
_chemical_formula_structural   Nd16Si4Sn4Ge7H192Pb(C2O5)32
_chemical_formula_sum   'Nd16 Si4 Sn4 Ge7 H192 Pb1 C64 O160'
_cell_volume   4075.59970125
_cell_formula_units_Z   1
loop_
 _symmetry_equiv_pos_site_id
 _symmetry_equiv_pos_as_xyz
  1  'x, y, z'
  2  '-x+3/4, -y+3/4, z'
  3  'x, -y+3/4, -z+3/4'
  4  '-x+3/4, y, -z+3/4'
  5  '-x, -y, -z'
  6  'x+3/4, y+3/4, -z'
  7  '-x, y+3/4, z+3/4'
  8  'x+3/4, -y, z+3/4'
  9  'x+1/2, y, z+1/2'
  10  '-x+1/4, -y+3/4, z+1/2'
  11  'x+1/2, -y+3/4, -z+1/4'
  12  '-x+1/4, y, -z+1/4'
  13  '-x+1/2, -y, -z+1/2'
  14  'x+1/4, y+3/4, -z+1/2'
  15  '-x+1/2, y+3/4, z+1/4'
  16  'x+1/4, -y, z+1/4'
  17  'x+1/2, y+1/2, z'
  18  '-x+1/4, -y+1/4, z'
  19  'x+1/2, -y+1/4, -z+3/4'
  20  '-x+1/4, y+1/2, -z+3/4'
  21  '-x+1/2, -y+1/2, -z'
  22  'x+1/4, y+1/4, -z'
  23  '-x+1/2, y+1/4, z+3/4'
  24  'x+1/4, -y+1/2, z+3/4'
  25  'x, y+1/2, z+1/2'
  26  '-x+3/4, -y+1/4, z+1/2'
  27  'x, -y+1/4, -z+1/4'
  28  '-x+3/4, y+1/2, -z+1/4'
  29  '-x, -y+1/2, -z+1/2'
  30  'x+3/4, y+1/4, -z+1/2'
  31  '-x, y+1/4, z+1/4'
  32  'x+3/4, -y+1/2, z+1/4'
loop_
 _atom_site_type_symbol
 _atom_site_label
 _atom_site_symmetry_multiplicity
 _atom_site_fract_x
 _atom_site_fract_y
 _atom_site_fract_z
 _atom_site_occupancy
  Nd  Nd0  16  0.12500000  0.12500000  0.50940800  1.0
  Pb+  Pb1  16  0.12500000  0.07460000  0.62500000  0.0625
  Ge+  Ge2  16  0.12500000  0.07460000  0.62500000  0.4375
  Si+  Si3  16  0.12500000  0.07460000  0.62500000  0.25
  Sn+  Sn4  16  0.12500000  0.07460000  0.62500000  0.25
  H  H5  32  0.00150000  0.09310000  0.83840000  1.0
  H  H6  32  0.02030000  0.02160000  0.87800000  1.0
  H  H7  32  0.05720000  0.32620000  0.67860000  1.0
  H  H8  32  0.07370000  0.01970000  0.92810000  1.0
  H  H9  32  0.10040000  0.05710000  0.17940000  1.0
  H  H10  32  0.12490000  0.04770000  0.23520000  1.0
  C  C11  32  0.06580000  0.34160000  0.46890000  1.0
  C  C12  32  0.08610000  0.08540000  0.21050000  1.0
  O  O13  32  0.02700000  0.37320000  0.06453000  1.0
  O  O14  32  0.05280000  0.05040000  0.90290000  1.0
  O  O15  32  0.11410000  0.03874000  0.58513000  1.0
  O  O16  32  0.11700000  0.34179000  0.96050000  1.0
  O  O17  32  0.12360000  0.27414000  0.48358000  1.0
