# generated using pymatgen
data_Gd4InGa7Ir8
_symmetry_space_group_name_H-M  'F d d d :2'
_cell_length_a   10.77200000
_cell_length_b   9.27500000
_cell_length_c   5.83000000
_cell_angle_alpha   90.00000000
_cell_angle_beta   90.00000000
_cell_angle_gamma   90.00000000
_symmetry_Int_Tables_number   70
_chemical_formula_structural   Gd4InGa7Ir8
_chemical_formula_sum   'Gd8 In2 Ga14 Ir16'
_cell_volume   582.47704900
_cell_formula_units_Z   2
loop_
 _symmetry_equiv_pos_site_id
 _symmetry_equiv_pos_as_xyz
  1  'x, y, z'
  2  'x, -y+3/4, -z+3/4'
  3  '-x+1/4, -y+1/4, z'
  4  '-x+1/4, y, -z+1/4'
  5  '-x, -y, -z'
  6  '-x, y+3/4, z+3/4'
  7  'x+1/4, y+1/4, -z'
  8  'x+1/4, -y, z+1/4'
  9  'x+1/2, y, z+1/2'
  10  'x+1/2, -y+3/4, -z+1/4'
  11  '-x+3/4, -y+1/4, z+1/2'
  12  '-x+3/4, y, -z+3/4'
  13  '-x+1/2, -y, -z+1/2'
  14  '-x+1/2, y+3/4, z+1/4'
  15  'x+3/4, y+1/4, -z+1/2'
  16  'x+3/4, -y, z+3/4'
  17  'x, y+1/2, z+1/2'
  18  'x, -y+1/4, -z+1/4'
  19  '-x+1/4, -y+3/4, z+1/2'
  20  '-x+1/4, y+1/2, -z+3/4'
  21  '-x, -y+1/2, -z+1/2'
  22  '-x, y+1/4, z+1/4'
  23  'x+1/4, y+3/4, -z+1/2'
  24  'x+1/4, -y+1/2, z+3/4'
  25  'x+1/2, y+1/2, z'
  26  'x+1/2, -y+1/4, -z+3/4'
  27  '-x+3/4, -y+3/4, z'
  28  '-x+3/4, y+1/2, -z+1/4'
  29  '-x+1/2, -y+1/2, -z'
  30  '-x+1/2, y+1/4, z+3/4'
  31  'x+3/4, y+3/4, -z'
  32  'x+3/4, -y+1/2, z+1/4'
loop_
 _atom_type_symbol
 _atom_type_oxidation_number
  Gd0+  0.0
  In0+  0.0
  Ga0+  0.0
  Ir0+  0.0
loop_
 _atom_site_type_symbol
 _atom_site_label
 _atom_site_symmetry_multiplicity
 _atom_site_fract_x
 _atom_site_fract_y
 _atom_site_fract_z
 _atom_site_occupancy
  Gd0+  Gd0  8  0.12500000  0.12500000  0.12500000  1.0
  In0+  In1  16  0.12500000  0.30600000  0.62500000  0.125
  Ga0+  Ga2  16  0.12500000  0.30600000  0.62500000  0.875
  Ir0+  Ir3  16  0.00287000  0.37500000  0.87500000  1.0
