# generated using pymatgen
data_Tb4.5Ce0.5Eu24Gd3Zn32Ge32S128
_symmetry_space_group_name_H-M  'F d d d :2'
_cell_length_a   20.39800000
_cell_length_b   20.68200000
_cell_length_c   12.23400000
_cell_angle_alpha   90.00000000
_cell_angle_beta   90.00000000
_cell_angle_gamma   90.00000000
_symmetry_Int_Tables_number   70
_chemical_formula_structural   Tb4.5Ce0.5Eu24Gd3Zn32Ge32S128
_chemical_formula_sum   'Tb4.5 Ce0.5 Eu24 Gd3 Zn32 Ge32 S128'
_cell_volume   5161.17514802
_cell_formula_units_Z   1
loop_
 _symmetry_equiv_pos_site_id
 _symmetry_equiv_pos_as_xyz
  1  'x, y, z'
  2  '-x+3/4, y, -z+3/4'
  3  '-x+3/4, -y+3/4, z'
  4  'x, -y+3/4, -z+3/4'
  5  '-x, -y, -z'
  6  'x+3/4, -y, z+3/4'
  7  'x+3/4, y+3/4, -z'
  8  '-x, y+3/4, z+3/4'
  9  'x, y+1/2, z+1/2'
  10  '-x+3/4, y+1/2, -z+1/4'
  11  '-x+3/4, -y+1/4, z+1/2'
  12  'x, -y+1/4, -z+1/4'
  13  '-x, -y+1/2, -z+1/2'
  14  'x+3/4, -y+1/2, z+1/4'
  15  'x+3/4, y+1/4, -z+1/2'
  16  '-x, y+1/4, z+1/4'
  17  'x+1/2, y, z+1/2'
  18  '-x+1/4, y, -z+1/4'
  19  '-x+1/4, -y+3/4, z+1/2'
  20  'x+1/2, -y+3/4, -z+1/4'
  21  '-x+1/2, -y, -z+1/2'
  22  'x+1/4, -y, z+1/4'
  23  'x+1/4, y+3/4, -z+1/2'
  24  '-x+1/2, y+3/4, z+1/4'
  25  'x+1/2, y+1/2, z'
  26  '-x+1/4, y+1/2, -z+3/4'
  27  '-x+1/4, -y+1/4, z'
  28  'x+1/2, -y+1/4, -z+3/4'
  29  '-x+1/2, -y+1/2, -z'
  30  'x+1/4, -y+1/2, z+3/4'
  31  'x+1/4, y+1/4, -z'
  32  '-x+1/2, y+1/4, z+3/4'
loop_
 _atom_site_type_symbol
 _atom_site_label
 _atom_site_symmetry_multiplicity
 _atom_site_fract_x
 _atom_site_fract_y
 _atom_site_fract_z
 _atom_site_occupancy
  Ce+  Ce0  8  0.12500000  0.12500000  0.12500000  0.0625
  Gd+  Gd1  8  0.12500000  0.12500000  0.12500000  0.375
  Tb+  Tb2  8  0.12500000  0.12500000  0.12500000  0.5625
  Eu  Eu3  16  0.12500000  0.37321000  0.62500000  1.0
  Eu  Eu4  8  0.12500000  0.12500000  0.62500000  1.0
  Zn  Zn5  32  0.05411000  0.25021000  0.83621000  1.0
  Ge  Ge6  32  0.01250000  0.00046000  0.87588000  1.0
  S  S7  32  0.00000000  0.08332000  0.49930000  1.0
  S  S8  32  0.00030000  0.33296000  0.25130000  1.0
  S  S9  32  0.07943000  0.25120000  0.01490000  1.0
  S  S10  32  0.09504000  0.00090000  0.75440000  1.0
