# generated using pymatgen
data_Fr3.5K0.25Si1.5Ge0.25H32.25Pb1.75C52.5N12O4
_symmetry_space_group_name_H-M  'P c a 21'
_cell_length_a   21.40100000
_cell_length_b   4.70590000
_cell_length_c   10.64530000
_cell_angle_alpha   90.00000000
_cell_angle_beta   90.00000000
_cell_angle_gamma   90.00000000
_symmetry_Int_Tables_number   29
_chemical_formula_structural
Fr3.5K0.25Si1.5Ge0.25H32.25Pb1.75C52.5N12O4
_chemical_formula_sum
'Fr3.5 K0.25 Si1.5 Ge0.25 H32.25 Pb1.75 C52.5 N12 O4'
_cell_volume   1072.09844530
_cell_formula_units_Z   1
loop_
 _symmetry_equiv_pos_site_id
 _symmetry_equiv_pos_as_xyz
  1  'x, y, z'
  2  '-x, -y, z+1/2'
  3  '-x+1/2, y, z+1/2'
  4  'x+1/2, -y, z'
loop_
 _atom_site_type_symbol
 _atom_site_label
 _atom_site_symmetry_multiplicity
 _atom_site_fract_x
 _atom_site_fract_y
 _atom_site_fract_z
 _atom_site_occupancy
  Fr+  Fr0  4  0.03210000  0.87430000  0.72010000  0.875
  H+  H1  4  0.03210000  0.87430000  0.72010000  0.0625
  K+  K2  4  0.03210000  0.87430000  0.72010000  0.0625
  Ge+  Ge3  4  0.24489000  0.44380000  0.96630000  0.0625
  Pb+  Pb4  4  0.24489000  0.44380000  0.96630000  0.4375
  Si+  Si5  4  0.24489000  0.44380000  0.96630000  0.375
  C+  C6  4  0.24489000  0.44380000  0.96630000  0.125
  H  H7  4  0.02020000  0.44110000  0.04610000  1.0
  H  H8  4  0.05840000  0.87880000  0.26980000  1.0
  H  H9  4  0.07080000  0.31430000  0.59680000  1.0
  H  H10  4  0.07160000  0.53240000  0.85790000  1.0
  H  H11  4  0.10480000  0.03300000  0.05310000  1.0
  H  H12  4  0.14330000  0.37190000  0.19640000  1.0
  H  H13  4  0.15300000  0.96200000  0.86180000  1.0
  H  H14  4  0.24270000  0.21700000  0.80370000  1.0
  C  C15  4  0.00407000  0.57950000  0.98980000  1.0
  C  C16  4  0.01109000  0.83640000  0.79690000  1.0
  C  C17  4  0.03463000  0.63360000  0.87860000  1.0
  C  C18  4  0.04240000  0.01730000  0.32630000  1.0
  C  C19  4  0.04983000  0.27470000  0.52010000  1.0
  C  C20  4  0.07342000  0.07180000  0.43940000  1.0
  C  C21  4  0.12995000  0.91410000  0.47240000  1.0
  C  C22  4  0.14082000  0.14170000  0.03250000  1.0
  C  C23  4  0.16317000  0.34020000  0.11780000  1.0
  C  C24  4  0.16989000  0.09880000  0.91800000  1.0
  C  C25  4  0.20437000  0.77270000  0.57850000  1.0
  C  C26  4  0.21535000  0.48750000  0.08230000  1.0
  C  C27  4  0.22287000  0.24860000  0.88230000  1.0
  N  N28  4  0.15607000  0.72350000  0.39720000  1.0
  N  N29  4  0.15914000  0.95130000  0.58930000  1.0
  N  N30  4  0.20492000  0.63210000  0.46940000  1.0
  O  O31  4  0.24730000  0.69250000  0.15220000  1.0
