# generated using pymatgen
data_H20Pb1.5C18.5Ts1I0.5Br4N4Cl0.5F2
_symmetry_space_group_name_H-M  'P c a 21'
_cell_length_a   14.27300000
_cell_length_b   4.60090000
_cell_length_c   10.75340000
_cell_angle_alpha   90.00000000
_cell_angle_beta   90.00000000
_cell_angle_gamma   90.00000000
_symmetry_Int_Tables_number   29
_chemical_formula_structural   H20Pb1.5C18.5Ts1I0.5Br4N4Cl0.5F2
_chemical_formula_sum   'H20 Pb1.5 C18.5 Ts1 I0.5 Br4 N4 Cl0.5 F2'
_cell_volume   706.16121467
_cell_formula_units_Z   1
loop_
 _symmetry_equiv_pos_site_id
 _symmetry_equiv_pos_as_xyz
  1  'x, y, z'
  2  '-x, -y, z+1/2'
  3  '-x+1/2, y, z+1/2'
  4  'x+1/2, -y, z'
loop_
 _atom_site_type_symbol
 _atom_site_label
 _atom_site_symmetry_multiplicity
 _atom_site_fract_x
 _atom_site_fract_y
 _atom_site_fract_z
 _atom_site_occupancy
  H  H0  4  0.02250000  0.79180000  0.55610000  1.0
  H  H1  4  0.03080000  0.66620000  0.75770000  1.0
  H  H2  4  0.12830000  0.12800000  0.48220000  1.0
  H  H3  4  0.23610000  0.32650000  0.61580000  1.0
  H  H4  4  0.24100000  0.17880000  0.82200000  1.0
  C+  C5  4  0.12950000  0.07190000  0.56520000  0.625
  Pb+  Pb6  4  0.12950000  0.07190000  0.56520000  0.375
  C  C7  4  0.06700000  0.87230000  0.60910000  1.0
  C  C8  4  0.13260000  0.90350000  0.80730000  1.0
  C  C9  4  0.19380000  0.18830000  0.64470000  1.0
  C  C10  4  0.19660000  0.10270000  0.76770000  1.0
  Ts+  Ts11  4  0.12657000  0.77593000  0.97310000  0.25
  F+  F12  4  0.12657000  0.77593000  0.97310000  0.5
  Cl+  Cl13  4  0.12657000  0.77593000  0.97310000  0.125
  I+  I14  4  0.12657000  0.77593000  0.97310000  0.125
  Br  Br15  4  0.09858000  0.62543000  0.28111000  1.0
  N  N16  4  0.07020000  0.79220000  0.73040000  1.0
