# generated using pymatgen
data_Sm(TiFe5)2
_symmetry_space_group_name_H-M   P4_2/nnm
_cell_length_a   8.59000000
_cell_length_b   8.59000000
_cell_length_c   4.80400000
_cell_angle_alpha   90.00000000
_cell_angle_beta   90.00000000
_cell_angle_gamma   90.00000000
_symmetry_Int_Tables_number   134
_chemical_formula_structural   Sm(TiFe5)2
_chemical_formula_sum   'Sm2 Ti4 Fe20'
_cell_volume   354.47803240
_cell_formula_units_Z   2
loop_
 _symmetry_equiv_pos_site_id
 _symmetry_equiv_pos_as_xyz
1  'x, y, z'
2  '-y+1/2, x+1/2, z+1/2'
3  '-x, -y, z'
4  'y+1/2, -x+1/2, z+1/2'
5  'x, -y, -z'
6  '-y+1/2, -x+1/2, -z+1/2'
7  '-x, y, -z'
8  'y+1/2, x+1/2, -z+1/2'
9  '-x+1/2, -y+1/2, -z+1/2'
10  'y, -x, -z'
11  'x+1/2, y+1/2, -z+1/2'
12  '-y, x, -z'
13  '-x+1/2, y+1/2, z+1/2'
14  'y, x, z'
15  'x+1/2, -y+1/2, z+1/2'
16  '-y, -x, z'
loop_
 _atom_site_type_symbol
 _atom_site_label
 _atom_site_symmetry_multiplicity
 _atom_site_fract_x
 _atom_site_fract_y
 _atom_site_fract_z
 _atom_site_occupancy
Sm  Sm0  2  0.00000000  0.00000000  0.00000000  1.0
Ti  Ti1  4  0.25000000  0.25000000  0.25000000  1.0
Fe  Fe2  8  0.00000000  0.22200000  0.50000000  1.0
Fe  Fe3  8  0.00000000  0.35200000  -0.00000000  1.0
Fe  Fe4  4  0.25000000  0.25000000  0.75000000  1.0
