# generated using pymatgen
data_Ag4.5Te3.5P3H3Au1.5Se2.0S4.0O2.5
_symmetry_space_group_name_H-M  'P 31 1 2'
_cell_length_a   6.19000000
_cell_length_b   6.19000000
_cell_length_c   9.01500000
_cell_angle_alpha   90.00000000
_cell_angle_beta   90.00000000
_cell_angle_gamma   120.00000000
_symmetry_Int_Tables_number   151
_chemical_formula_structural   Ag4.5Te3.5P3H3Au1.5Se2.0S4.0O2.5
_chemical_formula_sum   'Ag4.5 Te3.5 P3 H3 Au1.5 Se2.0 S4.0 O2.5'
_cell_volume   299.14218451
_cell_formula_units_Z   1
loop_
 _symmetry_equiv_pos_site_id
 _symmetry_equiv_pos_as_xyz
  1  'x, y, z'
  2  '-y, x-y, z+1/3'
  3  '-x+y, -x, z+2/3'
  4  '-y, -x, -z+2/3'
  5  '-x+y, y, -z+1/3'
  6  'x, x-y, -z'
loop_
 _atom_type_symbol
 _atom_type_oxidation_number
  Ag+  1.0
  Te2-  -2.0
  P5+  5.0
  H+  1.0
  Au+  1.0
  Se2-  -2.0
  S2-  -2.0
  O2-  -2.0
loop_
 _atom_site_type_symbol
 _atom_site_label
 _atom_site_symmetry_multiplicity
 _atom_site_fract_x
 _atom_site_fract_y
 _atom_site_fract_z
 _atom_site_occupancy
  Ag+  Ag0  3  0.16360000  0.08180000  0.00000000  1.0
  P5+  P1  3  0.50870000  0.01740000  0.66666667  1.0
  H+  H2  3  0.62000000  0.24000000  0.16670000  1.0
  Au+  Au3  3  0.20510000  0.41020000  0.66666667  0.5
  Ag+  Ag4  3  0.20510000  0.41020000  0.66666667  0.5
  S2-  S5  6  0.14560000  0.41230000  0.91863333  0.6666666666666666
  Se2-  Se6  6  0.14560000  0.41230000  0.91863333
  0.3333333333333333
  Te2-  Te7  6  0.46090000  0.18590000  0.77530000
  0.5833333333333334
  O2-  O8  6  0.46090000  0.18590000  0.77530000  0.4166666666666667
