# generated using pymatgen
data_Fr4.0Ra0.5Sr3.5Li2.0Mg1.5Be0.5H6N12O30
_symmetry_space_group_name_H-M  'P 61'
_cell_length_a   7.07000000
_cell_length_b   7.07000000
_cell_length_c   17.88600000
_cell_angle_alpha   90.00000000
_cell_angle_beta   90.00000000
_cell_angle_gamma   120.00000000
_symmetry_Int_Tables_number   169
_chemical_formula_structural   Fr4.0Ra0.5Sr3.5Li2.0Mg1.5Be0.5H6N12O30
_chemical_formula_sum
'Fr4.0 Ra0.5 Sr3.5 Li2.0 Mg1.5 Be0.5 H6 N12 O30'
_cell_volume   774.25262368
_cell_formula_units_Z   1
loop_
 _symmetry_equiv_pos_site_id
 _symmetry_equiv_pos_as_xyz
  1  'x, y, z'
  2  'x-y, x, z+1/6'
  3  '-y, x-y, z+1/3'
  4  '-x, -y, z+1/2'
  5  '-x+y, -x, z+2/3'
  6  'y, -x+y, z+5/6'
loop_
 _atom_type_symbol
 _atom_type_oxidation_number
  Fr0+  0.0
  Ra0+  0.0
  Sr0+  0.0
  Li0+  0.0
  Mg0+  0.0
  Be0+  0.0
  H0+  0.0
  N0+  0.0
  O0+  0.0
loop_
 _atom_site_type_symbol
 _atom_site_label
 _atom_site_symmetry_multiplicity
 _atom_site_fract_x
 _atom_site_fract_y
 _atom_site_fract_z
 _atom_site_occupancy
  Li0+  Li0  6  0.04900000  0.16700000  0.59866667
  0.3333333333333333
  Fr0+  Fr1  6  0.04900000  0.16700000  0.59866667
  0.6666666666666666
  Mg0+  Mg2  6  0.15006000  0.57315000  0.49880000  0.25
  Sr0+  Sr3  6  0.15006000  0.57315000  0.49880000
  0.5833333333333334
  Be0+  Be4  6  0.15006000  0.57315000  0.49880000
  0.08333333333333333
  Ra0+  Ra5  6  0.15006000  0.57315000  0.49880000
  0.08333333333333333
  H0+  H6  6  0.04400000  0.19000000  0.38500000  1.0
  N0+  N7  6  0.02930000  0.24630000  0.14430000  1.0
  N0+  N8  6  0.11640000  0.56490000  0.32430000  1.0
  O0+  O9  6  0.01270000  0.61550000  0.28140000  1.0
  O0+  O10  6  0.07560000  0.84440000  0.08186667  1.0
  O0+  O11  6  0.10300000  0.43780000  0.12140000  1.0
  O0+  O12  6  0.10780000  0.24500000  0.94413333  1.0
  O0+  O13  6  0.29020000  0.58600000  0.29720000  1.0
