# generated using pymatgen
data_Po3Ge6Sb4S0.5Lv8.5O6
_symmetry_space_group_name_H-M  'P 63/m'
_cell_length_a   7.08230000
_cell_length_b   7.08230000
_cell_length_c   9.56210000
_cell_angle_alpha   90.00000000
_cell_angle_beta   90.00000000
_cell_angle_gamma   120.00000000
_symmetry_Int_Tables_number   176
_chemical_formula_structural   Po3Ge6Sb4S0.5Lv8.5O6
_chemical_formula_sum   'Po3 Ge6 Sb4 S0.5 Lv8.5 O6'
_cell_volume   415.36753691
_cell_formula_units_Z   1
loop_
 _symmetry_equiv_pos_site_id
 _symmetry_equiv_pos_as_xyz
  1  'x, y, z'
  2  '-x, -y, -z'
  3  'x-y, x, z+1/2'
  4  '-x+y, -x, -z+1/2'
  5  '-y, x-y, z'
  6  'y, -x+y, -z'
  7  '-x, -y, z+1/2'
  8  'x, y, -z+1/2'
  9  '-x+y, -x, z'
  10  'x-y, x, -z'
  11  'y, -x+y, z+1/2'
  12  '-y, x-y, -z+1/2'
loop_
 _atom_type_symbol
 _atom_type_oxidation_number
  Po0+  0.0
  Ge0+  0.0
  Sb0+  0.0
  S0+  0.0
  O0+  0.0
  Lv0+  0.0
loop_
 _atom_site_type_symbol
 _atom_site_label
 _atom_site_symmetry_multiplicity
 _atom_site_fract_x
 _atom_site_fract_y
 _atom_site_fract_z
 _atom_site_occupancy
  Ge0+  Ge0  6  0.08400000  0.28870000  0.25000000  1.0
  Sb0+  Sb1  4  0.33333333  0.66666667  0.51460000  1.0
  S0+  S2  12  0.10120000  0.43390000  0.10060000
  0.041666666666666664
  Po0+  Po3  12  0.10120000  0.43390000  0.10060000  0.25
  Lv0+  Lv4  12  0.10120000  0.43390000  0.10060000
  0.7083333333333334
  O0+  O5  6  0.07110000  0.26020000  0.75000000  1.0
