# generated using pymatgen
data_Al0.33333333Tl0.33333333In0.16666667B1.16666667Cl6
_symmetry_space_group_name_H-M  'P 63/m'
_cell_length_a   6.14000000
_cell_length_b   6.14000000
_cell_length_c   6.60300000
_cell_angle_alpha   90.00000000
_cell_angle_beta   90.00000000
_cell_angle_gamma   120.00000000
_symmetry_Int_Tables_number   176
_chemical_formula_structural
Al0.33333333Tl0.33333333In0.16666667B1.16666667Cl6
_chemical_formula_sum
'Al0.33333333 Tl0.33333333 In0.16666667 B1.16666667 Cl6'
_cell_volume   215.58010110
_cell_formula_units_Z   1
loop_
 _symmetry_equiv_pos_site_id
 _symmetry_equiv_pos_as_xyz
  1  'x, y, z'
  2  '-x, -y, -z'
  3  'x-y, x, z+1/2'
  4  '-x+y, -x, -z+1/2'
  5  '-y, x-y, z'
  6  'y, -x+y, -z'
  7  '-x, -y, z+1/2'
  8  'x, y, -z+1/2'
  9  '-x+y, -x, z'
  10  'x-y, x, -z'
  11  'y, -x+y, z+1/2'
  12  '-y, x-y, -z+1/2'
loop_
 _atom_type_symbol
 _atom_type_oxidation_number
  Al0+  0.0
  Tl0+  0.0
  In0+  0.0
  B0+  0.0
  Cl0+  0.0
loop_
 _atom_site_type_symbol
 _atom_site_label
 _atom_site_symmetry_multiplicity
 _atom_site_fract_x
 _atom_site_fract_y
 _atom_site_fract_z
 _atom_site_occupancy
  B0+  B0  2  0.33333333  0.66666667  0.25000000  0.5833333333333334
  Tl0+  Tl1  2  0.33333333  0.66666667  0.25000000
  0.16666666666666666
  Al0+  Al2  2  0.33333333  0.66666667  0.25000000
  0.16666666666666666
  In0+  In3  2  0.33333333  0.66666667  0.25000000
  0.08333333333333333
  Cl0+  Cl4  6  0.00000000  0.33333333  0.25000000  1.0
