# generated using pymatgen
data_Cs0.5Rb3.16666667K0.33333333Zr2Si6O18
_symmetry_space_group_name_H-M  'P 63/m'
_cell_length_a   7.23190000
_cell_length_b   7.23190000
_cell_length_c   10.26880000
_cell_angle_alpha   90.00000000
_cell_angle_beta   90.00000000
_cell_angle_gamma   120.00000000
_symmetry_Int_Tables_number   176
_chemical_formula_structural   Cs0.5Rb3.16666667K0.33333333Zr2Si6O18
_chemical_formula_sum   'Cs0.5 Rb3.16666667 K0.33333333 Zr2 Si6 O18'
_cell_volume   465.10943725
_cell_formula_units_Z   1
loop_
 _symmetry_equiv_pos_site_id
 _symmetry_equiv_pos_as_xyz
  1  'x, y, z'
  2  '-x, -y, -z'
  3  'x-y, x, z+1/2'
  4  '-x+y, -x, -z+1/2'
  5  '-y, x-y, z'
  6  'y, -x+y, -z'
  7  '-x, -y, z+1/2'
  8  'x, y, -z+1/2'
  9  '-x+y, -x, z'
  10  'x-y, x, -z'
  11  'y, -x+y, z+1/2'
  12  '-y, x-y, -z+1/2'
loop_
 _atom_site_type_symbol
 _atom_site_label
 _atom_site_symmetry_multiplicity
 _atom_site_fract_x
 _atom_site_fract_y
 _atom_site_fract_z
 _atom_site_occupancy
  Rb+  Rb0  4  0.33333333  0.66666667  0.06520000
  0.7916666666666666
  Cs+  Cs1  4  0.33333333  0.66666667  0.06520000  0.125
  K+  K2  4  0.33333333  0.66666667  0.06520000  0.08333333333333333
  Zr  Zr3  2  0.00000000  0.00000000  0.00000000  1
  Si  Si4  6  0.15140000  0.38680000  0.75000000  1
  O  O5  12  0.06300000  0.25960000  0.61720000  1
  O  O6  6  0.09910000  0.58440000  0.75000000  1
