# generated using pymatgen
data_La5.25Pm0.25Pr0.25Dy0.25Sn6Au14
_symmetry_space_group_name_H-M  'P 63/m'
_cell_length_a   8.18500000
_cell_length_b   8.18500000
_cell_length_c   9.41500000
_cell_angle_alpha   90.00000000
_cell_angle_beta   90.00000000
_cell_angle_gamma   120.00000000
_symmetry_Int_Tables_number   176
_chemical_formula_structural   La5.25Pm0.25Pr0.25Dy0.25Sn6Au14
_chemical_formula_sum   'La5.25 Pm0.25 Pr0.25 Dy0.25 Sn6 Au14'
_cell_volume   546.24606763
_cell_formula_units_Z   1
loop_
 _symmetry_equiv_pos_site_id
 _symmetry_equiv_pos_as_xyz
  1  'x, y, z'
  2  '-x, -y, -z'
  3  'x-y, x, z+1/2'
  4  '-x+y, -x, -z+1/2'
  5  '-y, x-y, z'
  6  'y, -x+y, -z'
  7  '-x, -y, z+1/2'
  8  'x, y, -z+1/2'
  9  '-x+y, -x, z'
  10  'x-y, x, -z'
  11  'y, -x+y, z+1/2'
  12  '-y, x-y, -z+1/2'
loop_
 _atom_site_type_symbol
 _atom_site_label
 _atom_site_symmetry_multiplicity
 _atom_site_fract_x
 _atom_site_fract_y
 _atom_site_fract_z
 _atom_site_occupancy
  La+  La0  6  0.02112000  0.70072000  0.25000000  0.875
  Dy+  Dy1  6  0.02112000  0.70072000  0.25000000
  0.041666666666666664
  Pm+  Pm2  6  0.02112000  0.70072000  0.25000000
  0.041666666666666664
  Pr+  Pr3  6  0.02112000  0.70072000  0.25000000
  0.041666666666666664
  Sn  Sn4  4  0.33333333  0.66666667  0.04240000  1.0
  Sn  Sn5  2  0.00000000  0.00000000  0.00000000  1.0
  Au  Au6  12  0.01780000  0.66575000  0.59569000  1.0
  Au  Au7  2  0.33333333  0.66666667  0.75000000  1.0
