# generated using pymatgen
data_K12Na6Al2Bi2.0Mc2.0Sb1.5As0.5P1.5N0.5
_symmetry_space_group_name_H-M  'P 63/m m c'
_cell_length_a   10.16800000
_cell_length_b   10.16800000
_cell_length_c   10.52700000
_cell_angle_alpha   90.00000000
_cell_angle_beta   90.00000000
_cell_angle_gamma   120.00000000
_symmetry_Int_Tables_number   194
_chemical_formula_structural   K12Na6Al2Bi2.0Mc2.0Sb1.5As0.5P1.5N0.5
_chemical_formula_sum
'K12 Na6 Al2 Bi2.0 Mc2.0 Sb1.5 As0.5 P1.5 N0.5'
_cell_volume   942.55419295
_cell_formula_units_Z   1
loop_
 _symmetry_equiv_pos_site_id
 _symmetry_equiv_pos_as_xyz
  1  'x, y, z'
  2  '-x, -y, -z'
  3  'x-y, x, z+1/2'
  4  '-x+y, -x, -z+1/2'
  5  '-y, x-y, z'
  6  'y, -x+y, -z'
  7  '-x, -y, z+1/2'
  8  'x, y, -z+1/2'
  9  '-x+y, -x, z'
  10  'x-y, x, -z'
  11  'y, -x+y, z+1/2'
  12  '-y, x-y, -z+1/2'
  13  '-y, -x, -z+1/2'
  14  'y, x, z+1/2'
  15  '-x, -x+y, -z'
  16  'x, x-y, z'
  17  '-x+y, y, -z+1/2'
  18  'x-y, -y, z+1/2'
  19  'y, x, -z'
  20  '-y, -x, z'
  21  'x, x-y, -z+1/2'
  22  '-x, -x+y, z+1/2'
  23  'x-y, -y, -z'
  24  '-x+y, y, z'
loop_
 _atom_type_symbol
 _atom_type_oxidation_number
  K0+  0.0
  Na0+  0.0
  Al0+  0.0
  Bi0+  0.0
  Sb0+  0.0
  As0+  0.0
  P0+  0.0
  N0+  0.0
  Mc0+  0.0
loop_
 _atom_site_type_symbol
 _atom_site_label
 _atom_site_symmetry_multiplicity
 _atom_site_fract_x
 _atom_site_fract_y
 _atom_site_fract_z
 _atom_site_occupancy
  K0+  K0  12  0.20754000  0.41508000  0.54217000  1.0
  Na0+  Na1  6  0.11582000  0.23164000  0.25000000  1.0
  Al0+  Al2  2  0.33333333  0.66666667  0.25000000  1.0
  Bi0+  Bi3  6  0.03768000  0.51884000  0.25000000
  0.3333333333333333
  Mc0+  Mc4  6  0.03768000  0.51884000  0.25000000
  0.3333333333333333
  Sb0+  Sb5  6  0.03768000  0.51884000  0.25000000  0.25
  N0+  N6  6  0.03768000  0.51884000  0.25000000
  0.08333333333333333
  P0+  P7  2  0.00000000  0.00000000  0.00000000  0.75
  As0+  As8  2  0.00000000  0.00000000  0.00000000  0.25
