# generated using pymatgen
data_Ba0.33333333Mg0.16666667Be1.5Cu1.83333333As1.16666667P0.5N0.33333333Rg0.16
_symmetry_space_group_name_H-M  'P 63/m m c'
_cell_length_a   4.79500000
_cell_length_b   4.79500000
_cell_length_c   8.67700000
_cell_angle_alpha   90.00000000
_cell_angle_beta   90.00000000
_cell_angle_gamma   120.00000000
_symmetry_Int_Tables_number   194
_chemical_formula_structural
;
Ba0.33333333Mg0.16666667Be1.5Cu1.83333333As1.16666667P0.5N0.33333333Rg
0.16666667
;
_chemical_formula_sum
;
Ba0.33333333 Mg0.16666667 Be1.5 Cu1.83333333 As1.16666667 P0.5
N0.33333333 Rg0.16666667
;
_cell_volume   172.77362770
_cell_formula_units_Z   1
loop_
 _symmetry_equiv_pos_site_id
 _symmetry_equiv_pos_as_xyz
  1  'x, y, z'
  2  '-x, -y, -z'
  3  'x-y, x, z+1/2'
  4  '-x+y, -x, -z+1/2'
  5  '-y, x-y, z'
  6  'y, -x+y, -z'
  7  '-x, -y, z+1/2'
  8  'x, y, -z+1/2'
  9  '-x+y, -x, z'
  10  'x-y, x, -z'
  11  'y, -x+y, z+1/2'
  12  '-y, x-y, -z+1/2'
  13  '-y, -x, -z+1/2'
  14  'y, x, z+1/2'
  15  '-x, -x+y, -z'
  16  'x, x-y, z'
  17  '-x+y, y, -z+1/2'
  18  'x-y, -y, z+1/2'
  19  'y, x, -z'
  20  '-y, -x, z'
  21  'x, x-y, -z+1/2'
  22  '-x, -x+y, z+1/2'
  23  'x-y, -y, -z'
  24  '-x+y, y, z'
loop_
 _atom_type_symbol
 _atom_type_oxidation_number
  Ba+  1.0
  Mg+  1.0
  Be+  1.0
  Cu+  1.0
  As+  1.0
  P+  1.0
  N+  1.0
  Rg+  1.0
loop_
 _atom_site_type_symbol
 _atom_site_label
 _atom_site_symmetry_multiplicity
 _atom_site_fract_x
 _atom_site_fract_y
 _atom_site_fract_z
 _atom_site_occupancy
  Be+  Be0  2  0.33333333  0.66666667  0.25000000  0.75
  Ba+  Ba1  2  0.33333333  0.66666667  0.25000000
  0.16666666666666666
  Mg+  Mg2  2  0.33333333  0.66666667  0.25000000
  0.08333333333333333
  N+  N3  2  0.33333333  0.66666667  0.75000000  0.16666666666666666
  P+  P4  2  0.33333333  0.66666667  0.75000000  0.25
  As+  As5  2  0.33333333  0.66666667  0.75000000
  0.5833333333333334
  Rg+  Rg6  2  0.00000000  0.00000000  0.00000000
  0.08333333333333333
  Cu+  Cu7  2  0.00000000  0.00000000  0.00000000
  0.9166666666666666
