# generated using pymatgen
data_Cu1Au1.66666667Rg3Ag0.33333333S6
_symmetry_space_group_name_H-M  'P 63/m m c'
_cell_length_a   3.79600000
_cell_length_b   3.79600000
_cell_length_c   16.36000000
_cell_angle_alpha   90.00000000
_cell_angle_beta   90.00000000
_cell_angle_gamma   120.00000000
_symmetry_Int_Tables_number   194
_chemical_formula_structural   Cu1Au1.66666667Rg3Ag0.33333333S6
_chemical_formula_sum   'Cu1 Au1.66666667 Rg3 Ag0.33333333 S6'
_cell_volume   204.15796990
_cell_formula_units_Z   1
loop_
 _symmetry_equiv_pos_site_id
 _symmetry_equiv_pos_as_xyz
  1  'x, y, z'
  2  '-x, -y, -z'
  3  'x-y, x, z+1/2'
  4  '-x+y, -x, -z+1/2'
  5  '-y, x-y, z'
  6  'y, -x+y, -z'
  7  '-x, -y, z+1/2'
  8  'x, y, -z+1/2'
  9  '-x+y, -x, z'
  10  'x-y, x, -z'
  11  'y, -x+y, z+1/2'
  12  '-y, x-y, -z+1/2'
  13  '-y, -x, -z+1/2'
  14  'y, x, z+1/2'
  15  '-x, -x+y, -z'
  16  'x, x-y, z'
  17  '-x+y, y, -z+1/2'
  18  'x-y, -y, z+1/2'
  19  'y, x, -z'
  20  '-y, -x, z'
  21  'x, x-y, -z+1/2'
  22  '-x, -x+y, z+1/2'
  23  'x-y, -y, -z'
  24  '-x+y, y, z'
loop_
 _atom_site_type_symbol
 _atom_site_label
 _atom_site_symmetry_multiplicity
 _atom_site_fract_x
 _atom_site_fract_y
 _atom_site_fract_z
 _atom_site_occupancy
  Cu+  Cu0  2  0.33333333  0.66666667  0.75000000
  0.3333333333333333
  Au+  Au1  2  0.33333333  0.66666667  0.75000000
  0.6666666666666666
  Rg+  Rg2  4  0.33333333  0.66666667  0.10700000  0.75
  Au+  Au3  4  0.33333333  0.66666667  0.10700000
  0.08333333333333333
  Cu+  Cu4  4  0.33333333  0.66666667  0.10700000
  0.08333333333333333
  Ag+  Ag5  4  0.33333333  0.66666667  0.10700000
  0.08333333333333333
  S  S6  4  0.00000000  0.00000000  0.06400000  1
  S  S7  2  0.33333333  0.66666667  0.25000000  1
