# generated using pymatgen
data_Ta1.66666667V4.33333333Po2.5Se0.66666667S0.16666667O16.66666667
_symmetry_space_group_name_H-M  'P 4 b m'
_cell_length_a   8.90400000
_cell_length_b   8.90400000
_cell_length_c   5.57300000
_cell_angle_alpha   90.00000000
_cell_angle_beta   90.00000000
_cell_angle_gamma   90.00000000
_symmetry_Int_Tables_number   100
_chemical_formula_structural
Ta1.66666667V4.33333333Po2.5Se0.66666667S0.16666667O16.66666667
_chemical_formula_sum
'Ta1.66666667 V4.33333333 Po2.5 Se0.66666667 S0.16666667 O16.66666667'
_cell_volume   441.83421677
_cell_formula_units_Z   1
loop_
 _symmetry_equiv_pos_site_id
 _symmetry_equiv_pos_as_xyz
  1  'x, y, z'
  2  '-y, x, z'
  3  '-x, -y, z'
  4  'y, -x, z'
  5  '-x+1/2, y+1/2, z'
  6  'y+1/2, x+1/2, z'
  7  'x+1/2, -y+1/2, z'
  8  '-y+1/2, -x+1/2, z'
loop_
 _atom_type_symbol
 _atom_type_oxidation_number
  Ta0+  0.0
  V0+  0.0
  Po0+  0.0
  Se0+  0.0
  S0+  0.0
  O0+  0.0
loop_
 _atom_site_type_symbol
 _atom_site_label
 _atom_site_symmetry_multiplicity
 _atom_site_fract_x
 _atom_site_fract_y
 _atom_site_fract_z
 _atom_site_occupancy
  Ta0+  Ta0  2  0.00000000  0.00000000  0.25590000
  0.8333333333333334
  V0+  V1  2  0.00000000  0.00000000  0.25590000
  0.16666666666666666
  V0+  V2  4  0.13350000  0.63350000  0.25900000  1.0
  Po0+  Po3  2  0.00000000  0.50000000  0.14840000  0.75
  O0+  O4  2  0.00000000  0.50000000  0.14840000
  0.16666666666666666
  S0+  S5  2  0.00000000  0.50000000  0.14840000
  0.08333333333333333
  Po0+  Po6  2  0.00000000  0.00000000  0.54510000  0.5
  O0+  O7  2  0.00000000  0.00000000  0.54510000
  0.16666666666666666
  Se0+  Se8  2  0.00000000  0.00000000  0.54510000
  0.3333333333333333
  O0+  O9  8  0.08480000  0.80710000  0.15430000  1.0
  O0+  O10  4  0.13040000  0.63040000  0.56050000  1.0
  O0+  O11  4  0.16940000  0.33060000  0.79140000  1.0
