# generated using pymatgen
data_Ta0.16666667Nb3.16666667Db0.5V0.16666667Te1.5Se6.33333333S0.16666667
_symmetry_space_group_name_H-M  'P -6 m 2'
_cell_length_a   3.44000000
_cell_length_b   3.44000000
_cell_length_c   25.24000000
_cell_angle_alpha   90.00000000
_cell_angle_beta   90.00000000
_cell_angle_gamma   120.00000000
_symmetry_Int_Tables_number   187
_chemical_formula_structural
Ta0.16666667Nb3.16666667Db0.5V0.16666667Te1.5Se6.33333333S0.16666667
_chemical_formula_sum
;
Ta0.16666667 Nb3.16666667 Db0.5 V0.16666667 Te1.5 Se6.33333333
S0.16666667
;
_cell_volume   258.66452303
_cell_formula_units_Z   1
loop_
 _symmetry_equiv_pos_site_id
 _symmetry_equiv_pos_as_xyz
  1  'x, y, z'
  2  '-x+y, -x, -z'
  3  '-y, x-y, z'
  4  'x, y, -z'
  5  '-x+y, -x, z'
  6  '-y, x-y, -z'
  7  '-y, -x, -z'
  8  'x, x-y, z'
  9  '-x+y, y, -z'
  10  '-y, -x, z'
  11  'x, x-y, -z'
  12  '-x+y, y, z'
loop_
 _atom_site_type_symbol
 _atom_site_label
 _atom_site_symmetry_multiplicity
 _atom_site_fract_x
 _atom_site_fract_y
 _atom_site_fract_z
 _atom_site_occupancy
  Nb+  Nb0  2  0.00000000  0.00000000  0.25000000
  0.5833333333333334
  Ta+  Ta1  2  0.00000000  0.00000000  0.25000000
  0.08333333333333333
  Db+  Db2  2  0.00000000  0.00000000  0.25000000  0.25
  V+  V3  2  0.00000000  0.00000000  0.25000000  0.08333333333333333
  Nb  Nb4  1  0.00000000  0.00000000  0.00000000  1.0
  Nb  Nb5  1  0.33333333  0.66666667  0.50000000  1.0
  Te+  Te6  2  0.66666667  0.33333333  0.18500000  0.75
  S+  S7  2  0.66666667  0.33333333  0.18500000  0.08333333333333333
  Se+  Se8  2  0.66666667  0.33333333  0.18500000
  0.16666666666666666
  Se  Se9  2  0.00000000  0.00000000  0.43200000  1.0
  Se  Se10  2  0.33333333  0.66666667  0.06600000  1.0
  Se  Se11  2  0.66666667  0.33333333  0.31800000  1.0
