# generated using pymatgen
data_Rf0.22222222Zr0.66666667Ti0.11111111Fe0.22222222Os0.22222222Hs0.44444444Ru
_symmetry_space_group_name_H-M  'P m -3 m'
_cell_length_a   3.07000000
_cell_length_b   3.07000000
_cell_length_c   3.07000000
_cell_angle_alpha   90.00000000
_cell_angle_beta   90.00000000
_cell_angle_gamma   90.00000000
_symmetry_Int_Tables_number   221
_chemical_formula_structural
;
Rf0.22222222Zr0.66666667Ti0.11111111Fe0.22222222Os0.22222222Hs0.444444
44Ru0.11111111
;
_chemical_formula_sum
;
Rf0.22222222 Zr0.66666667 Ti0.11111111 Fe0.22222222 Os0.22222222
Hs0.44444444 Ru0.11111111
;
_cell_volume   28.93444300
_cell_formula_units_Z   1
loop_
 _symmetry_equiv_pos_site_id
 _symmetry_equiv_pos_as_xyz
  1  'x, y, z'
  2  '-x, -y, -z'
  3  '-y, x, z'
  4  'y, -x, -z'
  5  '-x, -y, z'
  6  'x, y, -z'
  7  'y, -x, z'
  8  '-y, x, -z'
  9  'x, -y, -z'
  10  '-x, y, z'
  11  '-y, -x, -z'
  12  'y, x, z'
  13  '-x, y, -z'
  14  'x, -y, z'
  15  'y, x, -z'
  16  '-y, -x, z'
  17  'z, x, y'
  18  '-z, -x, -y'
  19  'z, -y, x'
  20  '-z, y, -x'
  21  'z, -x, -y'
  22  '-z, x, y'
  23  'z, y, -x'
  24  '-z, -y, x'
  25  '-z, x, -y'
  26  'z, -x, y'
  27  '-z, -y, -x'
  28  'z, y, x'
  29  '-z, -x, y'
  30  'z, x, -y'
  31  '-z, y, x'
  32  'z, -y, -x'
  33  'y, z, x'
  34  '-y, -z, -x'
  35  'x, z, -y'
  36  '-x, -z, y'
  37  '-y, z, -x'
  38  'y, -z, x'
  39  '-x, z, y'
  40  'x, -z, -y'
  41  '-y, -z, x'
  42  'y, z, -x'
  43  '-x, -z, -y'
  44  'x, z, y'
  45  'y, -z, -x'
  46  '-y, z, x'
  47  'x, -z, y'
  48  '-x, z, -y'
loop_
 _atom_type_symbol
 _atom_type_oxidation_number
  Zr+  1.0
  Ti+  1.0
  Fe+  1.0
  Os+  1.0
  Ru+  1.0
  Hs+  1.0
  Rf+  1.0
loop_
 _atom_site_type_symbol
 _atom_site_label
 _atom_site_symmetry_multiplicity
 _atom_site_fract_x
 _atom_site_fract_y
 _atom_site_fract_z
 _atom_site_occupancy
  Rf+  Rf0  1  0.50000000  0.50000000  0.50000000
  0.2222222222222222
  Zr+  Zr1  1  0.50000000  0.50000000  0.50000000
  0.6666666666666666
  Ti+  Ti2  1  0.50000000  0.50000000  0.50000000
  0.1111111111111111
  Fe+  Fe3  1  0.00000000  0.00000000  0.00000000
  0.2222222222222222
  Os+  Os4  1  0.00000000  0.00000000  0.00000000
  0.2222222222222222
  Hs+  Hs5  1  0.00000000  0.00000000  0.00000000
  0.4444444444444444
  Ru+  Ru6  1  0.00000000  0.00000000  0.00000000
  0.1111111111111111
