# generated using pymatgen
data_Sn24Bi3.33333333P0.66666667I4Br4N20F80
_symmetry_space_group_name_H-M  'C m m 2'
_cell_length_a   12.77300000
_cell_length_b   25.56400000
_cell_length_c   8.05200000
_cell_angle_alpha   90.00000000
_cell_angle_beta   90.00000000
_cell_angle_gamma   90.00000000
_symmetry_Int_Tables_number   35
_chemical_formula_structural   Sn24Bi3.33333333P0.66666667I4Br4N20F80
_chemical_formula_sum
'Sn24 Bi3.33333333 P0.66666667 I4 Br4 N20 F80'
_cell_volume   2629.21128254
_cell_formula_units_Z   1
loop_
 _symmetry_equiv_pos_site_id
 _symmetry_equiv_pos_as_xyz
  1  'x, y, z'
  2  '-x, -y, z'
  3  '-x, y, z'
  4  'x, -y, z'
  5  'x+1/2, y+1/2, z'
  6  '-x+1/2, -y+1/2, z'
  7  '-x+1/2, y+1/2, z'
  8  'x+1/2, -y+1/2, z'
loop_
 _atom_site_type_symbol
 _atom_site_label
 _atom_site_symmetry_multiplicity
 _atom_site_fract_x
 _atom_site_fract_y
 _atom_site_fract_z
 _atom_site_occupancy
  Sn  Sn0  8  0.24430000  0.07930000  0.20000000  1.0
  Sn  Sn1  4  0.00000000  0.17270000  0.36850000  1.0
  Sn  Sn2  4  0.00000000  0.33220000  0.40990000  1.0
  Sn  Sn3  4  0.25000000  0.25000000  0.08340000  1.0
  Sn  Sn4  2  0.00000000  0.00000000  0.51890000  1.0
  Sn  Sn5  2  0.00000000  0.50000000  0.49560000  1.0
  P+  P6  4  0.00000000  0.34000000  0.91600000  0.16666666666666666
  Bi+  Bi7  4  0.00000000  0.34000000  0.91600000
  0.8333333333333334
  I+  I8  8  0.11000000  0.16000000  0.55400000  0.5
  Br+  Br9  8  0.11000000  0.16000000  0.55400000  0.5
  N  N10  8  0.24400000  0.07700000  0.69100000  1.0
  N  N11  4  0.00000000  0.16090000  0.88500000  1.0
  N  N12  4  0.25000000  0.25000000  0.59400000  1.0
  N  N13  2  0.00000000  0.00000000  0.02300000  1.0
  N  N14  2  0.00000000  0.50000000  0.00900000  1.0
  F  F15  8  0.10900000  0.33350000  0.60400000  1.0
  F  F16  8  0.13100000  0.24500000  0.96700000  1.0
  F  F17  8  0.13800000  0.23600000  0.24000000  1.0
  F  F18  8  0.14200000  0.09100000  0.01800000  1.0
  F  F19  8  0.14500000  0.41810000  0.03000000  1.0
  F  F20  8  0.21800000  0.32200000  0.14600000  1.0
  F  F21  4  0.00000000  0.05260000  0.34100000  1.0
  F  F22  4  0.00000000  0.05400000  0.68600000  1.0
  F  F23  4  0.00000000  0.24950000  0.46200000  1.0
  F  F24  4  0.00000000  0.42400000  0.51300000  1.0
  F  F25  4  0.10500000  0.50000000  0.32200000  1.0
  F  F26  4  0.10900000  0.50000000  0.67400000  1.0
  F  F27  4  0.15310000  0.00000000  0.51800000  1.0
  F  F28  4  0.22000000  0.00000000  0.12400000  1.0
