# generated using pymatgen
data_Cd0.66666667Cn0.33333333Si0.66666667Hg1H40C36Fl2Ge1.33333333N12O16
_symmetry_space_group_name_H-M  'C m m 2'
_cell_length_a   23.19500000
_cell_length_b   6.51000000
_cell_length_c   6.89400000
_cell_angle_alpha   90.00000000
_cell_angle_beta   90.00000000
_cell_angle_gamma   90.00000000
_symmetry_Int_Tables_number   35
_chemical_formula_structural
Cd0.66666667Cn0.33333333Si0.66666667Hg1H40C36Fl2Ge1.33333333N12O16
_chemical_formula_sum
;
Cd0.66666667 Cn0.33333333 Si0.66666667 Hg1 H40 C36 Fl2 Ge1.33333333
N12 O16
;
_cell_volume   1040.99020830
_cell_formula_units_Z   1
loop_
 _symmetry_equiv_pos_site_id
 _symmetry_equiv_pos_as_xyz
  1  'x, y, z'
  2  '-x, -y, z'
  3  'x, -y, z'
  4  '-x, y, z'
  5  'x+1/2, y+1/2, z'
  6  '-x+1/2, -y+1/2, z'
  7  'x+1/2, -y+1/2, z'
  8  '-x+1/2, y+1/2, z'
loop_
 _atom_site_type_symbol
 _atom_site_label
 _atom_site_symmetry_multiplicity
 _atom_site_fract_x
 _atom_site_fract_y
 _atom_site_fract_z
 _atom_site_occupancy
  Cd+  Cd0  2  0.00000000  0.00000000  0.03062000
  0.3333333333333333
  Cn+  Cn1  2  0.00000000  0.00000000  0.03062000
  0.16666666666666666
  Hg+  Hg2  2  0.00000000  0.00000000  0.03062000  0.5
  H  H3  8  0.05340000  0.19620000  0.63480000  1.0
  H  H4  8  0.08650000  0.31500000  0.79810000  1.0
  H  H5  4  0.00000000  0.37970000  0.39420000  1.0
  H  H6  4  0.03380000  0.50000000  0.04780000  1.0
  H  H7  4  0.14200000  0.00000000  0.54870000  1.0
  H  H8  4  0.18690000  0.50000000  0.48380000  1.0
  H  H9  4  0.21010000  0.00000000  0.01840000  1.0
  H  H10  4  0.23240000  0.00000000  0.68630000  1.0
  C  C11  8  0.05240000  0.31700000  0.71710000  1.0
  C  C12  4  0.10740000  0.00000000  0.18720000  1.0
  C  C13  4  0.16700000  0.00000000  0.27210000  1.0
  C  C14  4  0.17440000  0.00000000  0.46900000  1.0
  C  C15  4  0.21440000  0.00000000  0.15260000  1.0
  C  C16  4  0.23150000  0.50000000  0.23600000  1.0
  Fl+  Fl17  4  0.22380000  0.50000000  0.43150000  0.5
  Ge+  Ge18  4  0.22380000  0.50000000  0.43150000
  0.3333333333333333
  Si+  Si19  4  0.22380000  0.50000000  0.43150000
  0.16666666666666666
  C  C20  4  0.22820000  0.00000000  0.55200000  1.0
  C  C21  2  0.00000000  0.50000000  0.47700000  1.0
  C  C22  2  0.00000000  0.50000000  0.96490000  1.0
  N  N23  4  0.00000000  0.30730000  0.84380000  1.0
  N  N24  4  0.05350000  0.50000000  0.59570000  1.0
  N  N25  4  0.18250000  0.50000000  0.10500000  1.0
  O  O26  4  0.06400000  0.00000000  0.29180000  1.0
  O  O27  4  0.10360000  0.00000000  0.99670000  1.0
  O  O28  4  0.13370000  0.50000000  0.17840000  1.0
  O  O29  4  0.18950000  0.50000000  0.92200000  1.0
