# generated using pymatgen
data_Nd16Fe136B24Os2.5Ru45.5
_symmetry_space_group_name_H-M  'I -4 3 d'
_cell_length_a   14.19000000
_cell_length_b   14.19000000
_cell_length_c   14.19000000
_cell_angle_alpha   90.00000000
_cell_angle_beta   90.00000000
_cell_angle_gamma   90.00000000
_symmetry_Int_Tables_number   220
_chemical_formula_structural   Nd16Fe136B24Os2.5Ru45.5
_chemical_formula_sum   'Nd16 Fe136 B24 Os2.5 Ru45.5'
_cell_volume   2857.24305900
_cell_formula_units_Z   1
loop_
 _symmetry_equiv_pos_site_id
 _symmetry_equiv_pos_as_xyz
  1  'x, y, z'
  2  'y+3/4, -x+1/4, -z+3/4'
  3  '-x, -y+1/2, z'
  4  '-y+1/4, x+1/4, -z+3/4'
  5  'x, -y, -z+1/2'
  6  'y+1/4, x+1/4, z+1/4'
  7  '-x+1/2, y, -z'
  8  '-y+1/4, -x+3/4, z+3/4'
  9  'z, x, y'
  10  '-z+1/4, y+1/4, -x+3/4'
  11  'z, -x, -y+1/2'
  12  '-z+1/4, -y+3/4, x+3/4'
  13  '-z+1/2, x, -y'
  14  'z+1/4, y+1/4, x+1/4'
  15  '-z, -x+1/2, y'
  16  'z+3/4, -y+1/4, -x+3/4'
  17  'y, z, x'
  18  '-x+1/4, -z+3/4, y+3/4'
  19  '-y+1/2, z, -x'
  20  'x+3/4, -z+1/4, -y+3/4'
  21  '-y, -z+1/2, x'
  22  'x+1/4, z+1/4, y+1/4'
  23  'y, -z, -x+1/2'
  24  '-x+1/4, z+1/4, -y+3/4'
  25  'x+1/2, y+1/2, z+1/2'
  26  'y+1/4, -x+3/4, -z+1/4'
  27  '-x+1/2, -y, z+1/2'
  28  '-y+3/4, x+3/4, -z+1/4'
  29  'x+1/2, -y+1/2, -z'
  30  'y+3/4, x+3/4, z+3/4'
  31  '-x, y+1/2, -z+1/2'
  32  '-y+3/4, -x+1/4, z+1/4'
  33  'z+1/2, x+1/2, y+1/2'
  34  '-z+3/4, y+3/4, -x+1/4'
  35  'z+1/2, -x+1/2, -y'
  36  '-z+3/4, -y+1/4, x+1/4'
  37  '-z, x+1/2, -y+1/2'
  38  'z+3/4, y+3/4, x+3/4'
  39  '-z+1/2, -x, y+1/2'
  40  'z+1/4, -y+3/4, -x+1/4'
  41  'y+1/2, z+1/2, x+1/2'
  42  '-x+3/4, -z+1/4, y+1/4'
  43  '-y, z+1/2, -x+1/2'
  44  'x+1/4, -z+3/4, -y+1/4'
  45  '-y+1/2, -z, x+1/2'
  46  'x+3/4, z+3/4, y+3/4'
  47  'y+1/2, -z+1/2, -x'
  48  '-x+3/4, z+3/4, -y+1/4'
loop_
 _atom_site_type_symbol
 _atom_site_label
 _atom_site_symmetry_multiplicity
 _atom_site_fract_x
 _atom_site_fract_y
 _atom_site_fract_z
 _atom_site_occupancy
  Nd  Nd0  16  0.05600000  0.05600000  0.05600000  1.0
  Fe  Fe1  48  0.01500000  0.15900000  0.43700000  1.0
  Fe  Fe2  48  0.02300000  0.14700000  0.71600000  1.0
  Fe  Fe3  24  0.00000000  0.25000000  0.17100000  1.0
  Fe  Fe4  16  0.06500000  0.43500000  0.56500000  1.0
  B  B5  24  0.00000000  0.25000000  0.81200000  1.0
  Os+  Os6  48  0.06900000  0.37500000  0.87500000
  0.052083333333333336
  Ru+  Ru7  48  0.06900000  0.37500000  0.87500000
  0.9479166666666666
