# generated using pymatgen
data_Cs0.33333333K2.33333333Rb0.33333333Na1Hs0.33333333Bi4.33333333Ru0.33333333
_symmetry_space_group_name_H-M  'R -3 :R'
_cell_length_a   8.59500000
_cell_length_b   8.59500000
_cell_length_c   8.59500000
_cell_angle_alpha   52.23000000
_cell_angle_beta   52.23000000
_cell_angle_gamma   52.23000000
_symmetry_Int_Tables_number   148
_chemical_formula_structural
;
Cs0.33333333K2.33333333Rb0.33333333Na1Hs0.33333333Bi4.33333333Ru0.3333
3333Os0.33333333Mc1.33333333N0.33333333O12
;
_chemical_formula_sum
;
Cs0.33333333 K2.33333333 Rb0.33333333 Na1 Hs0.33333333 Bi4.33333333
Ru0.33333333 Os0.33333333 Mc1.33333333 N0.33333333 O12
;
_cell_volume   367.01229149
_cell_formula_units_Z   1
loop_
 _symmetry_equiv_pos_site_id
 _symmetry_equiv_pos_as_xyz
  1  'x, y, z'
  2  '-x, -y, -z'
  3  'y, z, x'
  4  '-y, -z, -x'
  5  'z, x, y'
  6  '-z, -x, -y'
loop_
 _atom_type_symbol
 _atom_type_oxidation_number
  Cs0+  0.0
  K0+  0.0
  Rb0+  0.0
  Na0+  0.0
  Bi0+  0.0
  Os0+  0.0
  Ru0+  0.0
  N0+  0.0
  O0+  0.0
  Hs0+  0.0
  Mc0+  0.0
loop_
 _atom_site_type_symbol
 _atom_site_label
 _atom_site_symmetry_multiplicity
 _atom_site_fract_x
 _atom_site_fract_y
 _atom_site_fract_z
 _atom_site_occupancy
  K0+  K0  2  0.19290000  0.19290000  0.19290000  1.0
  Na0+  Na1  2  0.38060000  0.38060000  0.38060000  0.5
  Rb0+  Rb2  2  0.38060000  0.38060000  0.38060000
  0.16666666666666666
  Cs0+  Cs3  2  0.38060000  0.38060000  0.38060000
  0.16666666666666666
  K0+  K4  2  0.38060000  0.38060000  0.38060000
  0.16666666666666666
  Hs0+  Hs5  1  0.00000000  0.00000000  0.00000000
  0.3333333333333333
  Ru0+  Ru6  1  0.00000000  0.00000000  0.00000000
  0.3333333333333333
  Os0+  Os7  1  0.00000000  0.00000000  0.00000000
  0.3333333333333333
  Bi0+  Bi8  6  0.07120000  0.69200000  0.07380000
  0.7222222222222222
  Mc0+  Mc9  6  0.07120000  0.69200000  0.07380000
  0.2222222222222222
  N0+  N10  6  0.07120000  0.69200000  0.07380000
  0.05555555555555555
  O0+  O11  6  0.04500000  0.55740000  0.25910000  1.0
  O0+  O12  6  0.06560000  0.86130000  0.36800000  1.0
