# generated using pymatgen
data_Cs13Rb2Al18H129(C7N)18
_symmetry_space_group_name_H-M  'R -3 :H'
_cell_length_a   15.74570000
_cell_length_b   15.74570000
_cell_length_c   14.94900000
_cell_angle_alpha   90.00000000
_cell_angle_beta   90.00000000
_cell_angle_gamma   120.00000000
_symmetry_Int_Tables_number   148
_chemical_formula_structural   Cs13Rb2Al18H129(C7N)18
_chemical_formula_sum   'Cs13.0 Rb2 Al18 H129 C126 N18'
_cell_volume   3209.71682585
_cell_formula_units_Z   1
loop_
 _symmetry_equiv_pos_site_id
 _symmetry_equiv_pos_as_xyz
  1  'x, y, z'
  2  '-x, -y, -z'
  3  '-y, x-y, z'
  4  'y, -x+y, -z'
  5  '-x+y, -x, z'
  6  'x-y, x, -z'
  7  'x+2/3, y+1/3, z+1/3'
  8  '-x+2/3, -y+1/3, -z+1/3'
  9  '-y+2/3, x-y+1/3, z+1/3'
  10  'y+2/3, -x+y+1/3, -z+1/3'
  11  '-x+y+2/3, -x+1/3, z+1/3'
  12  'x-y+2/3, x+1/3, -z+1/3'
  13  'x+1/3, y+2/3, z+2/3'
  14  '-x+1/3, -y+2/3, -z+2/3'
  15  '-y+1/3, x-y+2/3, z+2/3'
  16  'y+1/3, -x+y+2/3, -z+2/3'
  17  '-x+y+1/3, -x+2/3, z+2/3'
  18  'x-y+1/3, x+2/3, -z+2/3'
loop_
 _atom_site_type_symbol
 _atom_site_label
 _atom_site_symmetry_multiplicity
 _atom_site_fract_x
 _atom_site_fract_y
 _atom_site_fract_z
 _atom_site_occupancy
  H+  H0  18  0.01420000  0.61960000  0.38825000
  0.16666666666666666
  Cs+  Cs1  18  0.01420000  0.61960000  0.38825000
  0.7222222222222222
  Rb+  Rb2  18  0.01420000  0.61960000  0.38825000
  0.1111111111111111
  Al  Al3  18  0.03664333  0.13670667  0.56318667  1.0
  H  H4  18  0.00030000  0.59160000  0.54250000  1.0
  H  H5  18  0.01066667  0.81533333  0.96416333  1.0
  H  H6  18  0.01873333  0.24956667  0.40747667  1.0
  H  H7  18  0.02643333  0.88826667  0.25327667  1.0
  H  H8  18  0.04193333  0.91556667  0.09986667  1.0
  H  H9  18  0.05503333  0.22946667  0.60646667  1.0
  H  H10  18  0.06216667  0.52323333  0.05605333  1.0
  C  C11  18  0.00123333  0.19076667  0.09844667  1.0
  C  C12  18  0.01966667  0.75793333  0.75757333  1.0
  C  C13  18  0.03623333  0.20769667  0.28157667  1.0
  C  C14  18  0.03656667  0.76653333  0.84963333  1.0
  C  C15  18  0.05703333  0.15596667  0.13646667  1.0
  C  C16  18  0.05753333  0.22216667  0.38099667  1.0
  C  C17  18  0.07383333  0.16356667  0.22760667  1.0
  N  N18  18  0.03528333  0.13061667  0.43128667  1.0
