# generated using pymatgen
data_Er4Po0.66666667Te6.66666667As0.33333333P3.33333333H32C12S0.33333333N32.333
_symmetry_space_group_name_H-M  'F m m 2'
_cell_length_a   6.62240000
_cell_length_b   11.25630000
_cell_length_c   14.19210000
_cell_angle_alpha   90.00000000
_cell_angle_beta   90.00000000
_cell_angle_gamma   90.00000000
_symmetry_Int_Tables_number   42
_chemical_formula_structural
;
Er4Po0.66666667Te6.66666667As0.33333333P3.33333333H32C12S0.33333333N32
.33333333O12.33333333
;
_chemical_formula_sum
;
Er4 Po0.66666667 Te6.66666667 As0.33333333 P3.33333333 H32 C12
S0.33333333 N32.33333333 O12.33333333
;
_cell_volume   1057.93194451
_cell_formula_units_Z   1
loop_
 _symmetry_equiv_pos_site_id
 _symmetry_equiv_pos_as_xyz
  1  'x, y, z'
  2  '-x, -y, z'
  3  '-x, y, z'
  4  'x, -y, z'
  5  'x+1/2, y, z+1/2'
  6  '-x+1/2, -y, z+1/2'
  7  '-x+1/2, y, z+1/2'
  8  'x+1/2, -y, z+1/2'
  9  'x+1/2, y+1/2, z'
  10  '-x+1/2, -y+1/2, z'
  11  '-x+1/2, y+1/2, z'
  12  'x+1/2, -y+1/2, z'
  13  'x, y+1/2, z+1/2'
  14  '-x, -y+1/2, z+1/2'
  15  '-x, y+1/2, z+1/2'
  16  'x, -y+1/2, z+1/2'
loop_
 _atom_site_type_symbol
 _atom_site_label
 _atom_site_symmetry_multiplicity
 _atom_site_fract_x
 _atom_site_fract_y
 _atom_site_fract_z
 _atom_site_occupancy
  Er  Er0  4  0.00000000  0.00000000  0.46090000  1.0
  Te+  Te1  8  0.00000000  0.19280000  0.50520000
  0.8333333333333334
  Po+  Po2  8  0.00000000  0.19280000  0.50520000
  0.08333333333333333
  S+  S3  8  0.00000000  0.19280000  0.50520000
  0.041666666666666664
  O+  O4  8  0.00000000  0.19280000  0.50520000
  0.041666666666666664
  H  H5  16  0.12160000  0.23250000  0.51430000  1.0
  H  H6  8  0.00000000  0.06870000  0.64350000  1.0
  H  H7  4  0.00000000  0.00000000  0.06020000  1.0
  H  H8  4  0.00000000  0.00000000  0.11860000  1.0
  P+  P9  4  0.00000000  0.00000000  0.17920000  0.8333333333333334
  As+  As10  4  0.00000000  0.00000000  0.17920000
  0.08333333333333333
  N+  N11  4  0.00000000  0.00000000  0.17920000
  0.08333333333333333
  C  C12  8  0.00000000  0.10820000  0.22440000  1.0
  C  C13  4  0.00000000  0.00000000  0.99470000  1.0
  N  N14  8  0.00000000  0.12540000  0.31690000  1.0
  N  N15  8  0.00000000  0.20700000  0.18050000  1.0
  N  N16  8  0.00000000  0.20750000  0.74560000  1.0
  N  N17  8  0.00000000  0.24740000  0.32660000  1.0
  O  O18  8  0.16380000  0.00000000  0.95800000  1.0
  O  O19  4  0.00000000  0.00000000  0.62420000  1.0
