# generated using pymatgen
data_Eu4SnGeBi3As3H40PbC9N29McO20
_symmetry_space_group_name_H-M  'F m m 2'
_cell_length_a   11.33280000
_cell_length_b   6.73920000
_cell_length_c   14.28210000
_cell_angle_alpha   90.00000000
_cell_angle_beta   90.00000000
_cell_angle_gamma   90.00000000
_symmetry_Int_Tables_number   42
_chemical_formula_structural   Eu4SnGeBi3As3H40PbC9N29McO20
_chemical_formula_sum   'Eu4 Sn1 Ge1 Bi3 As3 H40 Pb1 C9 N29 Mc1 O20'
_cell_volume   1090.78118766
_cell_formula_units_Z   1
loop_
 _symmetry_equiv_pos_site_id
 _symmetry_equiv_pos_as_xyz
  1  'x, y, z'
  2  '-x, -y, z'
  3  'x, -y, z'
  4  '-x, y, z'
  5  'x, y+1/2, z+1/2'
  6  '-x, -y+1/2, z+1/2'
  7  'x, -y+1/2, z+1/2'
  8  '-x, y+1/2, z+1/2'
  9  'x+1/2, y+1/2, z'
  10  '-x+1/2, -y+1/2, z'
  11  'x+1/2, -y+1/2, z'
  12  '-x+1/2, y+1/2, z'
  13  'x+1/2, y, z+1/2'
  14  '-x+1/2, -y, z+1/2'
  15  'x+1/2, -y, z+1/2'
  16  '-x+1/2, y, z+1/2'
loop_
 _atom_site_type_symbol
 _atom_site_label
 _atom_site_symmetry_multiplicity
 _atom_site_fract_x
 _atom_site_fract_y
 _atom_site_fract_z
 _atom_site_occupancy
  Eu  Eu0  4  0.00000000  0.00000000  0.47150000  1.0
  H  H1  8  0.03830000  0.00000000  0.68930000  1.0
  H  H2  8  0.05340000  0.00000000  0.59630000  1.0
  H  H3  8  0.23630000  0.00000000  0.46460000  1.0
  H  H4  8  0.24940000  0.00000000  0.55790000  1.0
  H  H5  4  0.00000000  0.00000000  0.07380000  1.0
  H  H6  4  0.00000000  0.00000000  0.12850000  1.0
  Ge+  Ge7  4  0.00000000  0.00000000  0.00870000  0.25
  C+  C8  4  0.00000000  0.00000000  0.00870000  0.25
  Sn+  Sn9  4  0.00000000  0.00000000  0.00870000  0.25
  Pb+  Pb10  4  0.00000000  0.00000000  0.00870000  0.25
  C  C11  8  0.10780000  0.00000000  0.23340000  1.0
  N  N12  8  0.12600000  0.00000000  0.32470000  1.0
  Bi+  Bi13  8  0.24630000  0.00000000  0.33380000  0.375
  As+  As14  8  0.24630000  0.00000000  0.33380000  0.375
  N+  N15  8  0.24630000  0.00000000  0.33380000  0.125
  Mc+  Mc16  8  0.24630000  0.00000000  0.33380000  0.125
  N  N17  8  0.20400000  0.00000000  0.75480000  1.0
  N  N18  8  0.21100000  0.00000000  0.18940000  1.0
  N  N19  4  0.00000000  0.00000000  0.18870000  1.0
  O  O20  8  0.00000000  0.16120000  0.96300000  1.0
  O  O21  8  0.19710000  0.00000000  0.51530000  1.0
  O  O22  4  0.00000000  0.00000000  0.63810000  1.0
