# generated using pymatgen
data_Fe12S7O4.5Lv0.25Se0.25
_symmetry_space_group_name_H-M  'P -6 2 c'
_cell_length_a   5.96600000
_cell_length_b   5.96600000
_cell_length_c   11.76500000
_cell_angle_alpha   90.00000000
_cell_angle_beta   90.00000000
_cell_angle_gamma   120.00000000
_symmetry_Int_Tables_number   190
_chemical_formula_structural   Fe12S7O4.5Lv0.25Se0.25
_chemical_formula_sum   'Fe12 S7 O4.5 Lv0.25 Se0.25'
_cell_volume   362.65115190
_cell_formula_units_Z   1
loop_
 _symmetry_equiv_pos_site_id
 _symmetry_equiv_pos_as_xyz
  1  'x, y, z'
  2  '-x+y, -x, -z+1/2'
  3  '-y, x-y, z'
  4  'x, y, -z+1/2'
  5  '-x+y, -x, z'
  6  '-y, x-y, -z+1/2'
  7  'y, x, z+1/2'
  8  '-x, -x+y, -z'
  9  'x-y, -y, z+1/2'
  10  'y, x, -z'
  11  '-x, -x+y, z+1/2'
  12  'x-y, -y, -z'
loop_
 _atom_site_type_symbol
 _atom_site_label
 _atom_site_symmetry_multiplicity
 _atom_site_fract_x
 _atom_site_fract_y
 _atom_site_fract_z
 _atom_site_occupancy
  Fe  Fe0  12  0.05460000  0.37860000  0.62302000  1
  S  S1  4  0.33333333  0.66666667  0.01980000  1
  S  S2  2  0.00000000  0.00000000  0.00000000  1
  O+  O3  6  0.00290000  0.66850000  0.25000000  0.75
  Lv+  Lv4  6  0.00290000  0.66850000  0.25000000
  0.041666666666666664
  S+  S5  6  0.00290000  0.66850000  0.25000000  0.16666666666666666
  Se+  Se6  6  0.00290000  0.66850000  0.25000000
  0.041666666666666664
