# generated using pymatgen
data_K6Rb5NaCa6ReTcTeH12SeS4LvO31
_symmetry_space_group_name_H-M  'P -6 2 c'
_cell_length_a   8.54050000
_cell_length_b   8.54050000
_cell_length_c   10.80940000
_cell_angle_alpha   90.00000000
_cell_angle_beta   90.00000000
_cell_angle_gamma   120.00000000
_symmetry_Int_Tables_number   190
_chemical_formula_structural   K6Rb5NaCa6ReTcTeH12SeS4LvO31
_chemical_formula_sum
'Rb5 K6 Na1 Ca6 Tc1 Re1 Te1 H12 Se1 S4 Lv1 O31'
_cell_volume   682.80833499
_cell_formula_units_Z   1
loop_
 _symmetry_equiv_pos_site_id
 _symmetry_equiv_pos_as_xyz
  1  'x, y, z'
  2  '-x+y, -x, -z+1/2'
  3  '-y, x-y, z'
  4  'x, y, -z+1/2'
  5  '-x+y, -x, z'
  6  '-y, x-y, -z+1/2'
  7  'y, x, z+1/2'
  8  '-x, -x+y, -z'
  9  'x-y, -y, z+1/2'
  10  'y, x, -z'
  11  '-x, -x+y, z+1/2'
  12  'x-y, -y, -z'
loop_
 _atom_site_type_symbol
 _atom_site_label
 _atom_site_symmetry_multiplicity
 _atom_site_fract_x
 _atom_site_fract_y
 _atom_site_fract_z
 _atom_site_occupancy
  Rb+  Rb0  12  0.12500000  0.83600000  0.57600000
  0.4166666666666667
  Na+  Na1  12  0.12500000  0.83600000  0.57600000
  0.08333333333333333
  K+  K2  12  0.12500000  0.83600000  0.57600000  0.5
  Ca  Ca3  6  0.15138000  0.84790000  0.25000000  1.0
  Tc+  Tc4  2  0.00000000  0.00000000  0.00000000  0.5
  Re+  Re5  2  0.00000000  0.00000000  0.00000000  0.5
  H  H6  12  0.07600000  0.55500000  0.69300000  1.0
  S  S7  4  0.33333333  0.66666667  0.02544000  1.0
  Te+  Te8  4  0.33333333  0.66666667  0.61153000  0.25
  Lv+  Lv9  4  0.33333333  0.66666667  0.61153000  0.25
  O+  O10  4  0.33333333  0.66666667  0.61153000  0.25
  Se+  Se11  4  0.33333333  0.66666667  0.61153000  0.25
  O  O12  12  0.09660000  0.89450000  0.61070000  1.0
  O  O13  12  0.23652000  0.75810000  0.06891000  1.0
  O  O14  6  0.01530000  0.51470000  0.75000000  1.0
