# generated using pymatgen
data_Ta3Nb1.5V1.0Db0.5Si0.5Sn0.5Ge0.5C0.5
_symmetry_space_group_name_H-M  'P m -3 n'
_cell_length_a   5.16800000
_cell_length_b   5.16800000
_cell_length_c   5.16800000
_cell_angle_alpha   90.00000000
_cell_angle_beta   90.00000000
_cell_angle_gamma   90.00000000
_symmetry_Int_Tables_number   223
_chemical_formula_structural   Ta3Nb1.5V1.0Db0.5Si0.5Sn0.5Ge0.5C0.5
_chemical_formula_sum   'Ta3 Nb1.5 V1.0 Db0.5 Si0.5 Sn0.5 Ge0.5 C0.5'
_cell_volume   138.02810163
_cell_formula_units_Z   1
loop_
 _symmetry_equiv_pos_site_id
 _symmetry_equiv_pos_as_xyz
  1  'x, y, z'
  2  '-x, -y, -z'
  3  '-y+1/2, x+1/2, z+1/2'
  4  'y+1/2, -x+1/2, -z+1/2'
  5  '-x, -y, z'
  6  'x, y, -z'
  7  'y+1/2, -x+1/2, z+1/2'
  8  '-y+1/2, x+1/2, -z+1/2'
  9  'x, -y, -z'
  10  '-x, y, z'
  11  '-y+1/2, -x+1/2, -z+1/2'
  12  'y+1/2, x+1/2, z+1/2'
  13  '-x, y, -z'
  14  'x, -y, z'
  15  'y+1/2, x+1/2, -z+1/2'
  16  '-y+1/2, -x+1/2, z+1/2'
  17  'z, x, y'
  18  '-z, -x, -y'
  19  'z+1/2, -y+1/2, x+1/2'
  20  '-z+1/2, y+1/2, -x+1/2'
  21  'z, -x, -y'
  22  '-z, x, y'
  23  'z+1/2, y+1/2, -x+1/2'
  24  '-z+1/2, -y+1/2, x+1/2'
  25  '-z, x, -y'
  26  'z, -x, y'
  27  '-z+1/2, -y+1/2, -x+1/2'
  28  'z+1/2, y+1/2, x+1/2'
  29  '-z, -x, y'
  30  'z, x, -y'
  31  '-z+1/2, y+1/2, x+1/2'
  32  'z+1/2, -y+1/2, -x+1/2'
  33  'y, z, x'
  34  '-y, -z, -x'
  35  'x+1/2, z+1/2, -y+1/2'
  36  '-x+1/2, -z+1/2, y+1/2'
  37  '-y, z, -x'
  38  'y, -z, x'
  39  '-x+1/2, z+1/2, y+1/2'
  40  'x+1/2, -z+1/2, -y+1/2'
  41  '-y, -z, x'
  42  'y, z, -x'
  43  '-x+1/2, -z+1/2, -y+1/2'
  44  'x+1/2, z+1/2, y+1/2'
  45  'y, -z, -x'
  46  '-y, z, x'
  47  'x+1/2, -z+1/2, y+1/2'
  48  '-x+1/2, z+1/2, -y+1/2'
loop_
 _atom_type_symbol
 _atom_type_oxidation_number
  Ta0+  0.0
  Nb0+  0.0
  V0+  0.0
  Si0+  0.0
  Sn0+  0.0
  Ge0+  0.0
  C0+  0.0
  Db0+  0.0
loop_
 _atom_site_type_symbol
 _atom_site_label
 _atom_site_symmetry_multiplicity
 _atom_site_fract_x
 _atom_site_fract_y
 _atom_site_fract_z
 _atom_site_occupancy
  V0+  V0  6  0.00000000  0.50000000  0.25000000
  0.16666666666666666
  Ta0+  Ta1  6  0.00000000  0.50000000  0.25000000  0.5
  Db0+  Db2  6  0.00000000  0.50000000  0.25000000
  0.08333333333333333
  Nb0+  Nb3  6  0.00000000  0.50000000  0.25000000  0.25
  Si0+  Si4  2  0.00000000  0.00000000  0.00000000  0.25
  C0+  C5  2  0.00000000  0.00000000  0.00000000  0.25
  Sn0+  Sn6  2  0.00000000  0.00000000  0.00000000  0.25
  Ge0+  Ge7  2  0.00000000  0.00000000  0.00000000  0.25
