# generated using pymatgen
data_Ba6.5Ra0.5Na2Sr1.0Ge6At0.5Se3S14Lv3Cl0.5F0.5Ts0.5
_symmetry_space_group_name_H-M  'P 63'
_cell_length_a   9.76530000
_cell_length_b   9.76530000
_cell_length_c   12.05810000
_cell_angle_alpha   90.00000000
_cell_angle_beta   90.00000000
_cell_angle_gamma   120.00000000
_symmetry_Int_Tables_number   173
_chemical_formula_structural
Ba6.5Ra0.5Na2Sr1.0Ge6At0.5Se3S14Lv3Cl0.5F0.5Ts0.5
_chemical_formula_sum
'Ba6.5 Ra0.5 Na2 Sr1.0 Ge6 At0.5 Se3 S14 Lv3 Cl0.5 F0.5 Ts0.5'
_cell_volume   995.81965180
_cell_formula_units_Z   1
loop_
 _symmetry_equiv_pos_site_id
 _symmetry_equiv_pos_as_xyz
  1  'x, y, z'
  2  'x-y, x, z+1/2'
  3  '-y, x-y, z'
  4  '-x, -y, z+1/2'
  5  '-x+y, -x, z'
  6  'y, -x+y, z+1/2'
loop_
 _atom_site_type_symbol
 _atom_site_label
 _atom_site_symmetry_multiplicity
 _atom_site_fract_x
 _atom_site_fract_y
 _atom_site_fract_z
 _atom_site_occupancy
  Ba  Ba0  2  0.33333333  0.66666667  0.18794000  1.0
  Ba+  Ba1  6  0.08300000  0.74362000  0.50631000  0.75
  Ra+  Ra2  6  0.08300000  0.74362000  0.50631000
  0.08333333333333333
  Sr+  Sr3  6  0.08300000  0.74362000  0.50631000
  0.16666666666666666
  Na  Na4  2  0.00000000  0.00000000  0.25050000  1.0
  Ge  Ge5  6  0.11848000  0.67179000  0.84107000  1.0
  S  S6  6  0.08810000  0.66500000  0.01790000  1.0
  S  S7  6  0.11430000  0.45230000  0.77560000  1.0
  Se+  Se8  6  0.06710000  0.31640000  0.25000000  0.5
  Lv+  Lv9  6  0.06710000  0.31640000  0.25000000  0.5
  S  S10  2  0.33333333  0.66666667  0.44370000  1.0
  Cl+  Cl11  2  0.00000000  0.00000000  0.49960000  0.25
  F+  F12  2  0.00000000  0.00000000  0.49960000  0.25
  Ts+  Ts13  2  0.00000000  0.00000000  0.49960000  0.25
  At+  At14  2  0.00000000  0.00000000  0.49960000  0.25
