# generated using pymatgen
data_Si6N6.33333333Mc0.66666667Bi1
_symmetry_space_group_name_H-M  'P 63'
_cell_length_a   7.60150000
_cell_length_b   7.60150000
_cell_length_c   2.90610000
_cell_angle_alpha   90.00000000
_cell_angle_beta   90.00000000
_cell_angle_gamma   120.00000000
_symmetry_Int_Tables_number   173
_chemical_formula_structural   Si6N6.33333333Mc0.66666667Bi1
_chemical_formula_sum   'Si6 N6.33333333 Mc0.66666667 Bi1'
_cell_volume   145.42523887
_cell_formula_units_Z   1
loop_
 _symmetry_equiv_pos_site_id
 _symmetry_equiv_pos_as_xyz
  1  'x, y, z'
  2  'x-y, x, z+1/2'
  3  '-y, x-y, z'
  4  '-x, -y, z+1/2'
  5  '-x+y, -x, z'
  6  'y, -x+y, z+1/2'
loop_
 _atom_site_type_symbol
 _atom_site_label
 _atom_site_symmetry_multiplicity
 _atom_site_fract_x
 _atom_site_fract_y
 _atom_site_fract_z
 _atom_site_occupancy
  Si  Si0  6  0.17458300  0.40610100  0.75000000  1.0
  N  N1  6  0.03051000  0.33030000  0.24850000  1.0
  Mc+  Mc2  2  0.33333333  0.66666667  0.74690000
  0.3333333333333333
  N+  N3  2  0.33333333  0.66666667  0.74690000  0.16666666666666666
  Bi+  Bi4  2  0.33333333  0.66666667  0.74690000  0.5
