# generated using pymatgen
data_Cs0.66666667K0.33333333Rb0.33333333Li2.66666667Si0.33333333Ge0.33333333H48
_symmetry_space_group_name_H-M  'C 1 c 1'
_cell_length_a   5.75670000
_cell_length_b   25.85480000
_cell_length_c   8.79380000
_cell_angle_alpha   90.00000000
_cell_angle_beta   100.04000000
_cell_angle_gamma   90.00000000
_symmetry_Int_Tables_number   9
_chemical_formula_structural
;
Cs0.66666667K0.33333333Rb0.33333333Li2.66666667Si0.33333333Ge0.3333333
3H48Pb2.66666667C56Fl0.66666667N4O16
;
_chemical_formula_sum
;
Cs0.66666667 K0.33333333 Rb0.33333333 Li2.66666667 Si0.33333333
Ge0.33333333 H48 Pb2.66666667 C56 Fl0.66666667 N4 O16
;
_cell_volume   1288.81105522
_cell_formula_units_Z   1
loop_
 _symmetry_equiv_pos_site_id
 _symmetry_equiv_pos_as_xyz
  1  'x, y, z'
  2  'x, -y, z+1/2'
  3  'x+1/2, y+1/2, z'
  4  'x+1/2, -y+1/2, z+1/2'
loop_
 _atom_site_type_symbol
 _atom_site_label
 _atom_site_symmetry_multiplicity
 _atom_site_fract_x
 _atom_site_fract_y
 _atom_site_fract_z
 _atom_site_occupancy
  Li+  Li0  4  0.15390000  0.21930000  0.84830000
  0.6666666666666666
  K+  K1  4  0.15390000  0.21930000  0.84830000  0.08333333333333333
  Rb+  Rb2  4  0.15390000  0.21930000  0.84830000
  0.08333333333333333
  Cs+  Cs3  4  0.15390000  0.21930000  0.84830000
  0.16666666666666666
  H  H4  4  0.04100000  0.42450000  0.69750000  1.0
  H  H5  4  0.09380000  0.31300000  0.14250000  1.0
  H  H6  4  0.13170000  0.31800000  0.63020000  1.0
  H  H7  4  0.13380000  0.14170000  0.97680000  1.0
  H  H8  4  0.15720000  0.15750000  0.31150000  1.0
  H  H9  4  0.17560000  0.00720000  0.03340000  1.0
  H  H10  4  0.29480000  0.27420000  0.57500000  1.0
  H  H11  4  0.30000000  0.28380000  0.75540000  1.0
  H  H12  4  0.37240000  0.11600000  0.70090000  1.0
  H  H13  4  0.39830000  0.36350000  0.97590000  1.0
  H  H14  4  0.40610000  0.42790000  0.53860000  1.0
  H  H15  4  0.40800000  0.44570000  0.09060000  1.0
  C  C16  4  0.00460000  0.24472000  0.65105000  1.0
  C  C17  4  0.00840000  0.11143000  0.45370000  1.0
  C  C18  4  0.01280000  0.06243000  0.52170000  1.0
  C  C19  4  0.02700000  0.37844000  0.25691000  1.0
  C  C20  4  0.12170000  0.41208000  0.37375000  1.0
  C  C21  4  0.16080000  0.12388000  0.35517000  1.0
  C  C22  4  0.32170000  0.08709000  0.31873000  1.0
  Pb+  Pb23  4  0.17150000  0.02614000  0.48740000
  0.6666666666666666
  Fl+  Fl24  4  0.17150000  0.02614000  0.48740000
  0.16666666666666666
  Si+  Si25  4  0.17150000  0.02614000  0.48740000
  0.08333333333333333
  Ge+  Ge26  4  0.17150000  0.02614000  0.48740000
  0.08333333333333333
  C  C27  4  0.15860000  0.33645000  0.22172000  1.0
  C  C28  4  0.19980000  0.28358000  0.65310000  1.0
  C  C29  4  0.32750000  0.03756000  0.38527000  1.0
  C  C30  4  0.34460000  0.40485000  0.45734000  1.0
  C  C31  4  0.38680000  0.32894000  0.30356000  1.0
  C  C32  4  0.47860000  0.36329000  0.42109000  1.0
  C  C33  4  0.49400000  0.00123000  0.84297000  1.0
  N  N34  4  0.03140000  0.21297000  0.77572000  1.0
  O  O35  4  0.12930000  0.49356000  0.75363000  1.0
  O  O36  4  0.33920000  0.25798000  0.04241000  1.0
  O  O37  4  0.46310000  0.10125000  0.21838000  1.0
  O  O38  4  0.47840000  0.04729000  0.91275000  1.0
