# generated using pymatgen
data_Al0.66666667In1Po4.66666667Bi0.33333333B0.33333333As1.33333333Se3.33333333
_symmetry_space_group_name_H-M  'I 2 2 2'
_cell_length_a   5.60000000
_cell_length_b   5.25000000
_cell_length_c   9.04000000
_cell_angle_alpha   90.00000000
_cell_angle_beta   90.00000000
_cell_angle_gamma   90.00000000
_symmetry_Int_Tables_number   23
_chemical_formula_structural
;
Al0.66666667In1Po4.66666667Bi0.33333333B0.33333333As1.33333333Se3.3333
3333N0.33333333
;
_chemical_formula_sum
;
Al0.66666667 In1 Po4.66666667 Bi0.33333333 B0.33333333 As1.33333333
Se3.33333333 N0.33333333
;
_cell_volume   265.77600000
_cell_formula_units_Z   1
loop_
 _symmetry_equiv_pos_site_id
 _symmetry_equiv_pos_as_xyz
  1  'x, y, z'
  2  '-x, -y, z'
  3  '-x, y, -z'
  4  'x, -y, -z'
  5  'x+1/2, y+1/2, z+1/2'
  6  '-x+1/2, -y+1/2, z+1/2'
  7  '-x+1/2, y+1/2, -z+1/2'
  8  'x+1/2, -y+1/2, -z+1/2'
loop_
 _atom_type_symbol
 _atom_type_oxidation_number
  Al0+  0.0
  In0+  0.0
  Po0+  0.0
  Bi0+  0.0
  B0+  0.0
  As0+  0.0
  Se0+  0.0
  N0+  0.0
loop_
 _atom_site_type_symbol
 _atom_site_label
 _atom_site_symmetry_multiplicity
 _atom_site_fract_x
 _atom_site_fract_y
 _atom_site_fract_z
 _atom_site_occupancy
  In0+  In0  2  0.00000000  0.50000000  0.00000000  0.5
  B0+  B1  2  0.00000000  0.50000000  0.00000000
  0.16666666666666666
  Al0+  Al2  2  0.00000000  0.50000000  0.00000000
  0.3333333333333333
  Po0+  Po3  8  0.20000000  0.29000000  0.11500000
  0.5833333333333334
  Se0+  Se4  8  0.20000000  0.29000000  0.11500000
  0.4166666666666667
  As0+  As5  2  0.00000000  0.00000000  0.00000000
  0.6666666666666666
  N0+  N6  2  0.00000000  0.00000000  0.00000000
  0.16666666666666666
  Bi0+  Bi7  2  0.00000000  0.00000000  0.00000000
  0.16666666666666666
