# generated using pymatgen
data_Co2Sn1H64C85.5Fl3Pb2.5N8Cl4
_symmetry_space_group_name_H-M  'I 2 2 2'
_cell_length_a   11.96900000
_cell_length_b   14.57800000
_cell_length_c   17.09200000
_cell_angle_alpha   90.00000000
_cell_angle_beta   90.00000000
_cell_angle_gamma   90.00000000
_symmetry_Int_Tables_number   23
_chemical_formula_structural   Co2Sn1H64C85.5Fl3Pb2.5N8Cl4
_chemical_formula_sum   'Co2 Sn1 H64 C85.5 Fl3 Pb2.5 N8 Cl4'
_cell_volume   2982.28192954
_cell_formula_units_Z   1
loop_
 _symmetry_equiv_pos_site_id
 _symmetry_equiv_pos_as_xyz
  1  'x, y, z'
  2  '-x, -y, z'
  3  'x, -y, -z'
  4  '-x, y, -z'
  5  'x+1/2, y+1/2, z+1/2'
  6  '-x+1/2, -y+1/2, z+1/2'
  7  'x+1/2, -y+1/2, -z+1/2'
  8  '-x+1/2, y+1/2, -z+1/2'
loop_
 _atom_site_type_symbol
 _atom_site_label
 _atom_site_symmetry_multiplicity
 _atom_site_fract_x
 _atom_site_fract_y
 _atom_site_fract_z
 _atom_site_occupancy
  Co  Co0  2  0.00000000  0.00000000  0.00000000  1.0
  H  H1  8  0.11940000  0.18340000  0.05780000  1.0
  H  H2  8  0.12250000  0.28240000  0.15970000  1.0
  H  H3  8  0.12840000  0.14030000  0.74350000  1.0
  H  H4  8  0.12850000  0.04770000  0.85220000  1.0
  H  H5  8  0.13580000  0.32310000  0.54520000  1.0
  H  H6  8  0.13770000  0.45100000  0.37410000  1.0
  H  H7  8  0.13850000  0.35570000  0.26830000  1.0
  H  H8  8  0.14300000  0.23740000  0.65880000  1.0
  C  C9  8  0.00060000  0.39870000  0.42626000  1.0
  C  C10  8  0.00160000  0.28540000  0.70782000  1.0
  C  C11  8  0.00260000  0.22520000  0.77847000  1.0
  C  C12  8  0.07090000  0.23470000  0.15950000  1.0
  C  C13  8  0.07600000  0.09460000  0.84900000  1.0
  C  C14  8  0.07770000  0.15120000  0.78370000  1.0
  C  C15  8  0.08130000  0.35030000  0.30480000  1.0
  C  C16  8  0.08210000  0.33190000  0.58390000  1.0
  C  C17  8  0.08210000  0.40680000  0.36900000  1.0
  C  C18  8  0.08450000  0.27850000  0.65140000  1.0
  C  C19  4  0.00000000  0.45390000  0.50000000  1.0
  C+  C20  8  0.06840000  0.17470000  0.09810000  0.1875
  Sn+  Sn21  8  0.06840000  0.17470000  0.09810000  0.125
  Fl+  Fl22  8  0.06840000  0.17470000  0.09810000  0.375
  Pb+  Pb23  8  0.06840000  0.17470000  0.09810000  0.3125
  N  N24  8  0.00310000  0.10406000  0.90757000  1.0
  Cl  Cl25  4  0.20200000  0.00000000  0.00000000  1.0
