# generated using pymatgen
data_Si1.33333333Sn0.66666667Ge0.33333333H34Pb0.66666667C37S2Br2N8O8
_symmetry_space_group_name_H-M  'P -1'
_cell_length_a   8.17720000
_cell_length_b   9.77060000
_cell_length_c   13.99470000
_cell_angle_alpha   70.18400000
_cell_angle_beta   73.97000000
_cell_angle_gamma   83.37900000
_symmetry_Int_Tables_number   2
_chemical_formula_structural
Si1.33333333Sn0.66666667Ge0.33333333H34Pb0.66666667C37S2Br2N8O8
_chemical_formula_sum
;
Si1.33333333 Sn0.66666667 Ge0.33333333 H34 Pb0.66666667 C37 S2 Br2 N8
O8
;
_cell_volume   1010.72206149
_cell_formula_units_Z   1
loop_
 _symmetry_equiv_pos_site_id
 _symmetry_equiv_pos_as_xyz
  1  'x, y, z'
  2  '-x, -y, -z'
loop_
 _atom_site_type_symbol
 _atom_site_label
 _atom_site_symmetry_multiplicity
 _atom_site_fract_x
 _atom_site_fract_y
 _atom_site_fract_z
 _atom_site_occupancy
  Si+  Si0  2  0.38420000  0.76400000  0.85625000
  0.3333333333333333
  Pb+  Pb1  2  0.38420000  0.76400000  0.85625000
  0.16666666666666666
  Ge+  Ge2  2  0.38420000  0.76400000  0.85625000
  0.16666666666666666
  Sn+  Sn3  2  0.38420000  0.76400000  0.85625000
  0.3333333333333333
  H  H4  2  0.03520000  0.31940000  0.61540000  1.0
  H  H5  2  0.16090000  0.25860000  0.37780000  1.0
  H  H6  2  0.19370000  0.60650000  0.63420000  1.0
  H  H7  2  0.24010000  0.31360000  0.07500000  1.0
  H  H8  2  0.24720000  0.16740000  0.86300000  1.0
  H  H9  2  0.24740000  0.57520000  0.93580000  1.0
  H  H10  2  0.27830000  0.57140000  0.78650000  1.0
  H  H11  2  0.28470000  0.03560000  0.54120000  1.0
  H  H12  2  0.29810000  0.09990000  0.27860000  1.0
  H  H13  2  0.30260000  0.39460000  0.50310000  1.0
  H  H14  2  0.33500000  0.62160000  0.00860000  1.0
  H  H15  2  0.36610000  0.00050000  0.69450000  1.0
  H  H16  2  0.37260000  0.86140000  0.86660000  1.0
  H  H17  2  0.37450000  0.18600000  0.05780000  1.0
  H  H18  2  0.42540000  0.35240000  0.99760000  1.0
  H  H19  2  0.46330000  0.63320000  0.42840000  1.0
  H  H20  2  0.49010000  0.74140000  0.24910000  1.0
  Pb+  Pb21  2  0.27070000  0.65910000  0.95411000
  0.16666666666666666
  Si+  Si22  2  0.27070000  0.65910000  0.95411000
  0.3333333333333333
  C+  C23  2  0.27070000  0.65910000  0.95411000  0.5
  C  C24  2  0.11970000  0.23680000  0.74790000  1.0
  C  C25  2  0.13140000  0.81500000  0.09041000  1.0
  C  C26  2  0.13270000  0.30460000  0.64240000  1.0
  C  C27  2  0.22840000  0.68670000  0.64698000  1.0
  C  C28  2  0.22950000  0.82440000  0.57543000  1.0
  C  C29  2  0.23940000  0.28810000  0.31080000  1.0
  C  C30  2  0.25830000  0.21600000  0.79020000  1.0
  C  C31  2  0.27820000  0.66640000  0.73737000  1.0
  C  C32  2  0.28190000  0.94140000  0.59180000  1.0
  C  C33  2  0.29030000  0.35080000  0.57650000  1.0
  C  C34  2  0.29680000  0.43680000  0.25200000  1.0
  C  C35  2  0.31390000  0.20180000  0.25610000  1.0
  C  C36  2  0.32800000  0.78260000  0.75760000  1.0
  C  C37  2  0.33030000  0.91980000  0.68266000  1.0
  C  C38  2  0.36090000  0.28440000  0.06300000  1.0
  C  C39  2  0.41350000  0.26800000  0.72350000  1.0
  C  C40  2  0.42680000  0.28620000  0.15395000  1.0
  C  C41  2  0.42900000  0.33350000  0.61710000  1.0
  S  S42  2  0.07400000  0.73330000  0.00887000  1.0
  Br  Br43  2  0.15828000  0.85202000  0.45172800  1.0
  N  N44  2  0.04300000  0.81780000  0.18631000  1.0
  N  N45  2  0.13900000  0.88700000  0.21976000  1.0
  N  N46  2  0.27750000  0.87950000  0.06340000  1.0
  N  N47  2  0.27830000  0.92220000  0.14625000  1.0
  O  O48  2  0.01370000  0.84843000  0.93081000  1.0
  O  O49  2  0.03350000  0.38485000  0.92354000  1.0
  O  O50  2  0.25980000  0.54850000  0.27141000  1.0
  O  O51  2  0.41010000  0.43369000  0.15962000  1.0
