# generated using pymatgen
data_Fr1.25Cs0.75Si0.5Sn0.5Ge2H42C52Fl1N4O16
_symmetry_space_group_name_H-M  'P -1'
_cell_length_a   7.00500000
_cell_length_b   12.88480000
_cell_length_c   13.70230000
_cell_angle_alpha   91.15100000
_cell_angle_beta   94.66000000
_cell_angle_gamma   90.00700000
_symmetry_Int_Tables_number   2
_chemical_formula_structural
Fr1.25Cs0.75Si0.5Sn0.5Ge2H42C52Fl1N4O16
_chemical_formula_sum
'Fr1.25 Cs0.75 Si0.5 Sn0.5 Ge2 H42 C52 Fl1 N4 O16'
_cell_volume   1232.40365717
_cell_formula_units_Z   1
loop_
 _symmetry_equiv_pos_site_id
 _symmetry_equiv_pos_as_xyz
  1  'x, y, z'
  2  '-x, -y, -z'
loop_
 _atom_site_type_symbol
 _atom_site_label
 _atom_site_symmetry_multiplicity
 _atom_site_fract_x
 _atom_site_fract_y
 _atom_site_fract_z
 _atom_site_occupancy
  Cs+  Cs0  2  0.33560000  0.11850000  0.55630000  0.375
  Fr+  Fr1  2  0.33560000  0.11850000  0.55630000  0.625
  H  H2  2  0.00680000  0.12200000  0.78410000  1.0
  H  H3  2  0.04570000  0.43680000  0.94950000  1.0
  H  H4  2  0.05040000  0.94500000  0.12260000  1.0
  H  H5  2  0.10700000  0.82220000  0.12970000  1.0
  H  H6  2  0.10980000  0.89320000  0.78020000  1.0
  H  H7  2  0.11290000  0.93610000  0.61030000  1.0
  H  H8  2  0.13930000  0.48640000  0.85550000  1.0
  H  H9  2  0.16260000  0.72140000  0.83370000  1.0
  H  H10  2  0.17630000  0.36460000  0.88180000  1.0
  H  H11  2  0.22450000  0.58450000  0.71840000  1.0
  H  H12  2  0.26360000  0.38590000  0.39260000  1.0
  H  H13  2  0.27390000  0.29910000  0.54730000  1.0
  H  H14  2  0.34090000  0.63640000  0.05060000  1.0
  H  H15  2  0.34250000  0.88480000  0.94880000  1.0
  H  H16  2  0.38550000  0.22660000  0.77530000  1.0
  H  H17  2  0.39100000  0.01740000  0.41140000  1.0
  H  H18  2  0.41300000  0.52820000  0.26050000  1.0
  H  H19  2  0.42380000  0.84530000  0.26220000  1.0
  H  H20  2  0.46620000  0.40660000  0.01060000  1.0
  H  H21  2  0.46850000  0.90190000  0.05350000  1.0
  H  H22  2  0.48520000  0.43840000  0.63200000  1.0
  C  C23  2  0.00850000  0.87540000  0.14400000  1.0
  C  C24  2  0.06090000  0.62770000  0.27470000  1.0
  C  C25  2  0.08140000  0.42260000  0.88140000  1.0
  C  C26  2  0.13430000  0.83750000  0.73090000  1.0
  C  C27  2  0.13580000  0.86340000  0.63270000  1.0
  C  C28  2  0.16560000  0.73680000  0.76260000  1.0
  C  C29  2  0.17080000  0.78330000  0.56798000  1.0
  C  C30  2  0.17290000  0.15850000  0.00550000  1.0
  C  C31  2  0.17950000  0.78470000  0.45980000  1.0
  C  C32  2  0.20260000  0.68300000  0.59902000  1.0
  C  C33  2  0.23210000  0.61570000  0.51212000  1.0
  C  C34  2  0.24480000  0.65080000  0.33314000  1.0
  C  C35  2  0.29080000  0.30990000  0.39700000  1.0
  C  C36  2  0.29650000  0.25880000  0.48620000  1.0
  C  C37  2  0.32090000  0.28090000  0.21090000  1.0
  C  C38  2  0.32430000  0.25050000  0.31490000  1.0
  C  C39  2  0.33290000  0.15290000  0.49150000  1.0
  C  C40  2  0.36190000  0.14540000  0.32050000  1.0
  C  C41  2  0.36660000  0.18420000  0.05433000  1.0
  C  C42  2  0.38670000  0.10500000  0.22000000  1.0
  C  C43  2  0.41210000  0.69190000  0.28600000  1.0
  C  C44  2  0.42340000  0.58390000  0.31250000  1.0
  C  C45  2  0.48970000  0.77700000  0.25520000  1.0
  Fl+  Fl46  2  0.20110000  0.65730000  0.69650000  0.375
  Si+  Si47  2  0.20110000  0.65730000  0.69650000  0.25
  Ge+  Ge48  2  0.20110000  0.65730000  0.69650000  0.375
  C  C49  2  0.45370000  0.65160000  0.01290000  1.0
  C  C50  2  0.45400000  0.85890000  0.99170000  1.0
  C  C51  2  0.49720000  0.74980000  0.99370000  1.0
  Fl+  Fl52  2  0.36580000  0.09370000  0.40800000  0.125
  Ge+  Ge53  2  0.36580000  0.09370000  0.40800000  0.625
  Sn+  Sn54  2  0.36580000  0.09370000  0.40800000  0.25
  N  N55  2  0.22240000  0.68239000  0.43233000  1.0
  N  N56  2  0.36810000  0.19039000  0.15882000  1.0
  O  O57  2  0.03380000  0.14421000  0.04952000  1.0
  O  O58  2  0.08750000  0.60626000  0.18044000  1.0
  O  O59  2  0.09250000  0.37240000  0.69282000  1.0
  O  O60  2  0.15350000  0.85522000  0.40385000  1.0
  O  O61  2  0.17340000  0.15230000  0.90870000  1.0
  O  O62  2  0.25920000  0.52347000  0.50786000  1.0
  O  O63  2  0.28350000  0.36335000  0.17365000  1.0
  O  O64  2  0.41710000  0.01733000  0.19221000  1.0
