# generated using pymatgen
data_Cs2K0.5P4H12.5Ru2Se1.16666667O18Lv0.83333333
_symmetry_space_group_name_H-M  'P -1'
_cell_length_a   7.40470000
_cell_length_b   7.62920000
_cell_length_c   7.67710000
_cell_angle_alpha   94.65800000
_cell_angle_beta   98.75400000
_cell_angle_gamma   112.86400000
_symmetry_Int_Tables_number   2
_chemical_formula_structural
Cs2K0.5P4H12.5Ru2Se1.16666667O18Lv0.83333333
_chemical_formula_sum
'Cs2 K0.5 P4 H12.5 Ru2 Se1.16666667 O18 Lv0.83333333'
_cell_volume   390.24560726
_cell_formula_units_Z   1
loop_
 _symmetry_equiv_pos_site_id
 _symmetry_equiv_pos_as_xyz
  1  'x, y, z'
  2  '-x, -y, -z'
loop_
 _atom_site_type_symbol
 _atom_site_label
 _atom_site_symmetry_multiplicity
 _atom_site_fract_x
 _atom_site_fract_y
 _atom_site_fract_z
 _atom_site_occupancy
  Cs+  Cs0  2  0.15100000  0.36400000  0.58300000  0.75
  K+  K1  2  0.15100000  0.36400000  0.58300000  0.25
  H+  H2  2  0.05600000  0.07800000  0.72000000  0.75
  Cs+  Cs3  2  0.05600000  0.07800000  0.72000000  0.25
  P  P4  2  0.28546000  0.66199000  0.13531000  1.0
  P  P5  2  0.48960000  0.24223000  0.30195000  1.0
  H  H6  2  0.00800000  0.23500000  0.48300000  1.0
  H  H7  2  0.04600000  0.06100000  0.18500000  1.0
  H  H8  2  0.11100000  0.62500000  0.32200000  1.0
  H  H9  2  0.28500000  0.40800000  0.05200000  1.0
  Ru  Ru10  2  0.34945000  0.99579000  0.92359000  1.0
  H  H11  2  0.41600000  0.16000000  0.53600000  1.0
  H  H12  1  0.50000000  0.50000000  0.50000000  1.0
  O  O13  2  0.04190000  0.28350000  0.58880000  1.0
  O  O14  2  0.05400000  0.98230000  0.76930000  1.0
  O  O15  2  0.18310000  0.57430000  0.28540000  1.0
  O  O16  2  0.18450000  0.77730000  0.04120000  1.0
  O  O17  2  0.33190000  0.80560000  0.71810000  1.0
  O  O18  2  0.34190000  0.18850000  0.12200000  1.0
  O  O19  2  0.36620000  0.11620000  0.42830000  1.0
  O  O20  2  0.43890000  0.54650000  0.62630000  1.0
  O  O21  2  0.49370000  0.21000000  0.78690000  1.0
  Lv+  Lv22  2  0.27000000  0.49450000  0.99860000
  0.4166666666666667
  Se+  Se23  2  0.27000000  0.49450000  0.99860000
  0.5833333333333334
