# generated using pymatgen
data_Zn2Si5.5Sn0.5Ge1Bi1Sb2As0.5H8Pb1C12N0.5Cl16
_symmetry_space_group_name_H-M  'P 42 n m'
_cell_length_a   12.44040000
_cell_length_b   12.44040000
_cell_length_c   5.26020000
_cell_angle_alpha   90.00000000
_cell_angle_beta   90.00000000
_cell_angle_gamma   90.00000000
_symmetry_Int_Tables_number   102
_chemical_formula_structural
Zn2Si5.5Sn0.5Ge1Bi1Sb2As0.5H8Pb1C12N0.5Cl16
_chemical_formula_sum
'Zn2 Si5.5 Sn0.5 Ge1 Bi1 Sb2 As0.5 H8 Pb1 C12 N0.5 Cl16'
_cell_volume   814.08723707
_cell_formula_units_Z   1
loop_
 _symmetry_equiv_pos_site_id
 _symmetry_equiv_pos_as_xyz
  1  'x, y, z'
  2  '-y+1/2, x+1/2, z+1/2'
  3  '-x, -y, z'
  4  'y+1/2, -x+1/2, z+1/2'
  5  '-x+1/2, y+1/2, z+1/2'
  6  'y, x, z'
  7  'x+1/2, -y+1/2, z+1/2'
  8  '-y, -x, z'
loop_
 _atom_site_type_symbol
 _atom_site_label
 _atom_site_symmetry_multiplicity
 _atom_site_fract_x
 _atom_site_fract_y
 _atom_site_fract_z
 _atom_site_occupancy
  Zn  Zn0  2  0.00000000  0.00000000  0.10110000  1.0
  Si+  Si1  8  0.05460000  0.18613000  0.76936000  0.6875
  Ge+  Ge2  8  0.05460000  0.18613000  0.76936000  0.125
  Pb+  Pb3  8  0.05460000  0.18613000  0.76936000  0.125
  Sn+  Sn4  8  0.05460000  0.18613000  0.76936000  0.0625
  Sb+  Sb5  4  0.09338000  0.09339000  0.85972000  0.5
  Bi+  Bi6  4  0.09338000  0.09339000  0.85972000  0.25
  As+  As7  4  0.09338000  0.09339000  0.85972000  0.125
  N+  N8  4  0.09338000  0.09339000  0.85972000  0.125
  H  H9  8  0.01840500  0.78356900  0.85563600  1.0
  C  C10  8  0.10621000  0.24209000  0.57638000  1.0
  C  C11  4  0.20079000  0.20079000  0.47130000  1.0
  Cl  Cl12  8  0.05025000  0.35843400  0.46409000  1.0
  Cl  Cl13  4  0.11325300  0.88674700  0.28058000  1.0
  Cl  Cl14  4  0.23828600  0.76171400  0.72007000  1.0
