# generated using pymatgen
data_Fr0.66666667Rb0.33333333Na0.33333333Mn2Nb1.33333333V0.33333333H0.66666667D
_symmetry_space_group_name_H-M  'P 42 n m'
_cell_length_a   4.73500000
_cell_length_b   4.73500000
_cell_length_c   9.41000000
_cell_angle_alpha   90.00000000
_cell_angle_beta   90.00000000
_cell_angle_gamma   90.00000000
_symmetry_Int_Tables_number   102
_chemical_formula_structural
;
Fr0.66666667Rb0.33333333Na0.33333333Mn2Nb1.33333333V0.33333333H0.66666
667Db0.33333333At0.33333333I1Cl1.66666667F9
;
_chemical_formula_sum
;
Fr0.66666667 Rb0.33333333 Na0.33333333 Mn2 Nb1.33333333 V0.33333333
H0.66666667 Db0.33333333 At0.33333333 I1 Cl1.66666667 F9
;
_cell_volume   210.97431725
_cell_formula_units_Z   1
loop_
 _symmetry_equiv_pos_site_id
 _symmetry_equiv_pos_as_xyz
  1  'x, y, z'
  2  '-y+1/2, x+1/2, z+1/2'
  3  '-x, -y, z'
  4  'y+1/2, -x+1/2, z+1/2'
  5  '-x+1/2, y+1/2, z+1/2'
  6  'y, x, z'
  7  'x+1/2, -y+1/2, z+1/2'
  8  '-y, -x, z'
loop_
 _atom_site_type_symbol
 _atom_site_label
 _atom_site_symmetry_multiplicity
 _atom_site_fract_x
 _atom_site_fract_y
 _atom_site_fract_z
 _atom_site_occupancy
  Fr+  Fr0  2  0.00000000  0.00000000  0.33700000
  0.3333333333333333
  H+  H1  2  0.00000000  0.00000000  0.33700000  0.3333333333333333
  Rb+  Rb2  2  0.00000000  0.00000000  0.33700000
  0.16666666666666666
  Na+  Na3  2  0.00000000  0.00000000  0.33700000
  0.16666666666666666
  Mn  Mn4  2  0.00000000  0.00000000  0.00000000  1.0
  Nb+  Nb5  2  0.00000000  0.00000000  0.66540000
  0.6666666666666666
  Db+  Db6  2  0.00000000  0.00000000  0.66540000
  0.16666666666666666
  V+  V7  2  0.00000000  0.00000000  0.66540000  0.16666666666666666
  F+  F8  4  0.18950000  0.81050000  0.50900000  0.25
  At+  At9  4  0.18950000  0.81050000  0.50900000
  0.08333333333333333
  Cl+  Cl10  4  0.18950000  0.81050000  0.50900000
  0.4166666666666667
  I+  I11  4  0.18950000  0.81050000  0.50900000  0.25
  F  F12  4  0.19380000  0.80620000  0.82080000  1.0
  F  F13  4  0.21230000  0.78770000  0.16690000  1.0
