# generated using pymatgen
data_Cs1.125Rb0.5Na0.375Cr2H16N4O16
_symmetry_space_group_name_H-M  'I -4 2 m'
_cell_length_a   7.03860000
_cell_length_b   7.03860000
_cell_length_c   8.17480000
_cell_angle_alpha   90.00000000
_cell_angle_beta   90.00000000
_cell_angle_gamma   90.00000000
_symmetry_Int_Tables_number   121
_chemical_formula_structural   Cs1.125Rb0.5Na0.375Cr2H16N4O16
_chemical_formula_sum   'Cs1.125 Rb0.5 Na0.375 Cr2 H16 N4 O16'
_cell_volume   404.99504205
_cell_formula_units_Z   1
loop_
 _symmetry_equiv_pos_site_id
 _symmetry_equiv_pos_as_xyz
  1  'x, y, z'
  2  'y, -x, -z'
  3  '-x, -y, z'
  4  '-y, x, -z'
  5  'x, -y, -z'
  6  'y, x, z'
  7  '-x, y, -z'
  8  '-y, -x, z'
  9  'x+1/2, y+1/2, z+1/2'
  10  'y+1/2, -x+1/2, -z+1/2'
  11  '-x+1/2, -y+1/2, z+1/2'
  12  '-y+1/2, x+1/2, -z+1/2'
  13  'x+1/2, -y+1/2, -z+1/2'
  14  'y+1/2, x+1/2, z+1/2'
  15  '-x+1/2, y+1/2, -z+1/2'
  16  '-y+1/2, -x+1/2, z+1/2'
loop_
 _atom_site_type_symbol
 _atom_site_label
 _atom_site_symmetry_multiplicity
 _atom_site_fract_x
 _atom_site_fract_y
 _atom_site_fract_z
 _atom_site_occupancy
  Na+  Na0  2  0.00000000  0.00000000  0.00000000  0.1875
  Rb+  Rb1  2  0.00000000  0.00000000  0.00000000  0.25
  Cs+  Cs2  2  0.00000000  0.00000000  0.00000000  0.5625
  Cr  Cr3  2  0.00000000  0.00000000  0.50000000  1.0
  H  H4  16  0.02500000  0.40800000  0.69100000  1.0
  N  N5  4  0.00000000  0.50000000  0.25000000  1.0
  O  O6  8  0.13420000  0.13420000  0.33540000  1.0
  O  O7  8  0.19397000  0.19397000  0.49650000  1.0
