# generated using pymatgen
data_Cs1.33333333K4Na0.33333333Cr0.66666667H0.33333333W1.33333333S1.66666667O8.
_symmetry_space_group_name_H-M  'I -4 2 m'
_cell_length_a   6.69400000
_cell_length_b   6.69400000
_cell_length_c   7.57360000
_cell_angle_alpha   90.00000000
_cell_angle_beta   90.00000000
_cell_angle_gamma   90.00000000
_symmetry_Int_Tables_number   121
_chemical_formula_structural
;
Cs1.33333333K4Na0.33333333Cr0.66666667H0.33333333W1.33333333S1.6666666
7O8.66666667Lv5.66666667
;
_chemical_formula_sum
;
Cs1.33333333 K4 Na0.33333333 Cr0.66666667 H0.33333333 W1.33333333
S1.66666667 O8.66666667 Lv5.66666667
;
_cell_volume   339.37025921
_cell_formula_units_Z   1
loop_
 _symmetry_equiv_pos_site_id
 _symmetry_equiv_pos_as_xyz
  1  'x, y, z'
  2  'y, -x, -z'
  3  '-x, -y, z'
  4  '-y, x, -z'
  5  'x, -y, -z'
  6  'y, x, z'
  7  '-x, y, -z'
  8  '-y, -x, z'
  9  'x+1/2, y+1/2, z+1/2'
  10  'y+1/2, -x+1/2, -z+1/2'
  11  '-x+1/2, -y+1/2, z+1/2'
  12  '-y+1/2, x+1/2, -z+1/2'
  13  'x+1/2, -y+1/2, -z+1/2'
  14  'y+1/2, x+1/2, z+1/2'
  15  '-x+1/2, y+1/2, -z+1/2'
  16  '-y+1/2, -x+1/2, z+1/2'
loop_
 _atom_site_type_symbol
 _atom_site_label
 _atom_site_symmetry_multiplicity
 _atom_site_fract_x
 _atom_site_fract_y
 _atom_site_fract_z
 _atom_site_occupancy
  K  K0  4  0.00000000  0.50000000  0.25000000  1.0
  Cs+  Cs1  2  0.00000000  0.00000000  0.50000000
  0.6666666666666666
  Na+  Na2  2  0.00000000  0.00000000  0.50000000
  0.16666666666666666
  H+  H3  2  0.00000000  0.00000000  0.50000000  0.16666666666666666
  Cr+  Cr4  2  0.00000000  0.00000000  0.00000000
  0.3333333333333333
  W+  W5  2  0.00000000  0.00000000  0.00000000  0.6666666666666666
  O  O6  8  0.13483000  0.13483000  0.18250000  1.0
  S+  S7  8  0.20661000  0.20661000  0.01310000  0.20833333333333334
  O+  O8  8  0.20661000  0.20661000  0.01310000  0.08333333333333333
  Lv+  Lv9  8  0.20661000  0.20661000  0.01310000
  0.7083333333333334
