# generated using pymatgen
data_Si4Fl2Sn8Ge4PbCSeSO13Lv
_symmetry_space_group_name_H-M  'P 2 3'
_cell_length_a   9.85000000
_cell_length_b   9.85000000
_cell_length_c   9.85000000
_cell_angle_alpha   90.00000000
_cell_angle_beta   90.00000000
_cell_angle_gamma   90.00000000
_symmetry_Int_Tables_number   195
_chemical_formula_structural   Si4Fl2Sn8Ge4PbCSeSO13Lv
_chemical_formula_sum   'Si4 Fl2 Sn8 Ge4 Pb1 C1 Se1 S1 O13 Lv1'
_cell_volume   955.67162500
_cell_formula_units_Z   1
loop_
 _symmetry_equiv_pos_site_id
 _symmetry_equiv_pos_as_xyz
  1  'x, y, z'
  2  '-x, -y, z'
  3  'x, -y, -z'
  4  '-x, y, -z'
  5  'z, x, y'
  6  'z, -x, -y'
  7  '-z, x, -y'
  8  '-z, -x, y'
  9  'y, z, x'
  10  '-y, z, -x'
  11  '-y, -z, x'
  12  'y, -z, -x'
loop_
 _atom_site_type_symbol
 _atom_site_label
 _atom_site_symmetry_multiplicity
 _atom_site_fract_x
 _atom_site_fract_y
 _atom_site_fract_z
 _atom_site_occupancy
  Si  Si0  4  0.15000000  0.15000000  0.15000000  1
  Fl2+  Fl1  4  0.32000000  0.32000000  0.32000000  0.5
  C2+  C2  4  0.32000000  0.32000000  0.32000000  0.25
  Pb2+  Pb3  4  0.32000000  0.32000000  0.32000000  0.25
  Ge2+  Ge4  12  0.05000000  0.31000000  0.91000000
  0.3333333333333333
  Sn2+  Sn5  12  0.05000000  0.31000000  0.91000000
  0.6666666666666666
  S2+  S6  4  0.25000000  0.25000000  0.25000000  0.25
  O2+  O7  4  0.25000000  0.25000000  0.25000000  0.25
  Se2+  Se8  4  0.25000000  0.25000000  0.25000000  0.25
  Lv2+  Lv9  4  0.25000000  0.25000000  0.25000000  0.25
  O2+  O10  12  0.01000000  0.09000000  0.24000000  1
