# generated using pymatgen
data_Cd0.5Hg0.5Cn1P0.5N3.5Cl4
_symmetry_space_group_name_H-M  'C m m m'
_cell_length_a   8.18000000
_cell_length_b   8.29000000
_cell_length_c   3.96000000
_cell_angle_alpha   90.00000000
_cell_angle_beta   90.00000000
_cell_angle_gamma   90.00000000
_symmetry_Int_Tables_number   65
_chemical_formula_structural   Cd0.5Hg0.5Cn1P0.5N3.5Cl4
_chemical_formula_sum   'Cd0.5 Hg0.5 Cn1 P0.5 N3.5 Cl4'
_cell_volume   268.53631200
_cell_formula_units_Z   1
loop_
 _symmetry_equiv_pos_site_id
 _symmetry_equiv_pos_as_xyz
  1  'x, y, z'
  2  '-x, -y, -z'
  3  '-x, -y, z'
  4  'x, y, -z'
  5  'x, -y, -z'
  6  '-x, y, z'
  7  '-x, y, -z'
  8  'x, -y, z'
  9  'x+1/2, y+1/2, z'
  10  '-x+1/2, -y+1/2, -z'
  11  '-x+1/2, -y+1/2, z'
  12  'x+1/2, y+1/2, -z'
  13  'x+1/2, -y+1/2, -z'
  14  '-x+1/2, y+1/2, z'
  15  '-x+1/2, y+1/2, -z'
  16  'x+1/2, -y+1/2, z'
loop_
 _atom_site_type_symbol
 _atom_site_label
 _atom_site_symmetry_multiplicity
 _atom_site_fract_x
 _atom_site_fract_y
 _atom_site_fract_z
 _atom_site_occupancy
  Cd+  Cd0  2  0.00000000  0.00000000  0.00000000  0.25
  Hg+  Hg1  2  0.00000000  0.00000000  0.00000000  0.25
  Cn+  Cn2  2  0.00000000  0.00000000  0.00000000  0.5
  N+  N3  4  0.00000000  0.25000000  0.00000000  0.875
  P+  P4  4  0.00000000  0.25000000  0.00000000  0.125
  Cl  Cl5  4  0.22600000  0.00000000  0.50000000  1
