# generated using pymatgen
data_K6.33333333Rb1.66666667Cd2H8C20I2.66666667Br0.33333333N4Cl0.33333333F0.666
_symmetry_space_group_name_H-M  'C m m m'
_cell_length_a   11.83000000
_cell_length_b   13.13800000
_cell_length_c   4.15690000
_cell_angle_alpha   90.00000000
_cell_angle_beta   90.00000000
_cell_angle_gamma   90.00000000
_symmetry_Int_Tables_number   65
_chemical_formula_structural
;
K6.33333333Rb1.66666667Cd2H8C20I2.66666667Br0.33333333N4Cl0.33333333F0
.66666667
;
_chemical_formula_sum
;
K6.33333333 Rb1.66666667 Cd2 H8 C20 I2.66666667 Br0.33333333 N4
Cl0.33333333 F0.66666667
;
_cell_volume   646.07595653
_cell_formula_units_Z   1
loop_
 _symmetry_equiv_pos_site_id
 _symmetry_equiv_pos_as_xyz
  1  'x, y, z'
  2  '-x, -y, -z'
  3  '-x, -y, z'
  4  'x, y, -z'
  5  'x, -y, -z'
  6  '-x, y, z'
  7  '-x, y, -z'
  8  'x, -y, z'
  9  'x+1/2, y+1/2, z'
  10  '-x+1/2, -y+1/2, -z'
  11  '-x+1/2, -y+1/2, z'
  12  'x+1/2, y+1/2, -z'
  13  'x+1/2, -y+1/2, -z'
  14  '-x+1/2, y+1/2, z'
  15  '-x+1/2, y+1/2, -z'
  16  'x+1/2, -y+1/2, z'
loop_
 _atom_site_type_symbol
 _atom_site_label
 _atom_site_symmetry_multiplicity
 _atom_site_fract_x
 _atom_site_fract_y
 _atom_site_fract_z
 _atom_site_occupancy
  K+  K0  8  0.08550000  0.34550000  0.00000000  0.7916666666666666
  Rb+  Rb1  8  0.08550000  0.34550000  0.00000000
  0.20833333333333334
  Cd  Cd2  2  0.00000000  0.00000000  0.00000000  1.0
  H  H3  8  0.21670000  0.15040000  0.00000000  1.0
  C  C4  8  0.12470000  0.41120000  0.00000000  1.0
  C  C5  8  0.24160000  0.41410000  0.00000000  1.0
  C  C6  4  0.06350000  0.50000000  0.00000000  1.0
  I+  I7  4  0.00000000  0.16202000  0.50000000  0.6666666666666666
  F+  F8  4  0.00000000  0.16202000  0.50000000  0.16666666666666666
  Cl+  Cl9  4  0.00000000  0.16202000  0.50000000
  0.08333333333333333
  Br+  Br10  4  0.00000000  0.16202000  0.50000000
  0.08333333333333333
  N  N11  4  0.20040000  0.00000000  0.00000000  1.0
