# generated using pymatgen
data_Hg12Po3Te2O2LvBrCl7
_symmetry_space_group_name_H-M  'I 21 3'
_cell_length_a   9.54000000
_cell_length_b   9.54000000
_cell_length_c   9.54000000
_cell_angle_alpha   90.00000000
_cell_angle_beta   90.00000000
_cell_angle_gamma   90.00000000
_symmetry_Int_Tables_number   199
_chemical_formula_structural   Hg12Po3Te2O2LvBrCl7
_chemical_formula_sum   'Hg12 Po3 Te2 O2 Lv1 Br1 Cl7'
_cell_volume   868.25066400
_cell_formula_units_Z   1
loop_
 _symmetry_equiv_pos_site_id
 _symmetry_equiv_pos_as_xyz
  1  'x, y, z'
  2  '-x, -y+1/2, z'
  3  'x, -y, -z+1/2'
  4  '-x+1/2, y, -z'
  5  'z, x, y'
  6  'z, -x, -y+1/2'
  7  '-z+1/2, x, -y'
  8  '-z, -x+1/2, y'
  9  'y, z, x'
  10  '-y+1/2, z, -x'
  11  '-y, -z+1/2, x'
  12  'y, -z, -x+1/2'
  13  'x+1/2, y+1/2, z+1/2'
  14  '-x+1/2, -y, z+1/2'
  15  'x+1/2, -y+1/2, -z'
  16  '-x, y+1/2, -z+1/2'
  17  'z+1/2, x+1/2, y+1/2'
  18  'z+1/2, -x+1/2, -y'
  19  '-z, x+1/2, -y+1/2'
  20  '-z+1/2, -x, y+1/2'
  21  'y+1/2, z+1/2, x+1/2'
  22  '-y, z+1/2, -x+1/2'
  23  '-y+1/2, -z, x+1/2'
  24  'y+1/2, -z+1/2, -x'
loop_
 _atom_type_symbol
 _atom_type_oxidation_number
  Hg0+  0.0
  Po0+  0.0
  Te0+  0.0
  Br0+  0.0
  Cl0+  0.0
  O0+  0.0
  Lv0+  0.0
loop_
 _atom_site_type_symbol
 _atom_site_label
 _atom_site_symmetry_multiplicity
 _atom_site_fract_x
 _atom_site_fract_y
 _atom_site_fract_z
 _atom_site_occupancy
  Hg0+  Hg0  12  0.00000000  0.25000000  0.30400000  1.0
  Po0+  Po1  8  0.22600000  0.27400000  0.72600000  0.375
  Te0+  Te2  8  0.22600000  0.27400000  0.72600000  0.25
  O0+  O3  8  0.22600000  0.27400000  0.72600000  0.25
  Lv0+  Lv4  8  0.22600000  0.27400000  0.72600000  0.125
  Br0+  Br5  8  0.02000000  0.02000000  0.02000000  0.125
  Cl0+  Cl6  8  0.02000000  0.02000000  0.02000000  0.875
