# generated using pymatgen
data_Fe4.33333333Ru2Hs1.33333333Si8Os0.33333333O24
_symmetry_space_group_name_H-M  'C 1 2/c 1'
_cell_length_a   9.73000000
_cell_length_b   9.11000000
_cell_length_c   5.23000000
_cell_angle_alpha   90.00000000
_cell_angle_beta   107.80000000
_cell_angle_gamma   90.00000000
_symmetry_Int_Tables_number   15
_chemical_formula_structural
Fe4.33333333Ru2Hs1.33333333Si8Os0.33333333O24
_chemical_formula_sum
'Fe4.33333333 Ru2 Hs1.33333333 Si8 Os0.33333333 O24'
_cell_volume   441.39649311
_cell_formula_units_Z   1
loop_
 _symmetry_equiv_pos_site_id
 _symmetry_equiv_pos_as_xyz
  1  'x, y, z'
  2  '-x, -y, -z'
  3  '-x, y, -z+1/2'
  4  'x, -y, z+1/2'
  5  'x+1/2, y+1/2, z'
  6  '-x+1/2, -y+1/2, -z'
  7  '-x+1/2, y+1/2, -z+1/2'
  8  'x+1/2, -y+1/2, z+1/2'
loop_
 _atom_site_type_symbol
 _atom_site_label
 _atom_site_symmetry_multiplicity
 _atom_site_fract_x
 _atom_site_fract_y
 _atom_site_fract_z
 _atom_site_occupancy
  Fe  Fe0  4  0.00000000  0.09900000  0.75000000  1
  Ru+  Ru1  4  0.00000000  0.26300000  0.25000000  0.5
  Hs+  Hs2  4  0.00000000  0.26300000  0.25000000
  0.3333333333333333
  Fe+  Fe3  4  0.00000000  0.26300000  0.25000000
  0.08333333333333333
  Os+  Os4  4  0.00000000  0.26300000  0.25000000
  0.08333333333333333
  Si  Si5  8  0.20400000  0.41500000  0.74800000  1
  O  O6  8  0.12400000  0.09000000  0.15900000  1
  O  O7  8  0.12500000  0.26000000  0.63800000  1
  O  O8  8  0.14100000  0.46900000  0.95500000  1
