# generated using pymatgen
data_Rb1Na6.5Ag16Sb1As6H88.5C64N41
_symmetry_space_group_name_H-M  'C 1 2/c 1'
_cell_length_a   13.03580000
_cell_length_b   21.13500000
_cell_length_c   11.71940000
_cell_angle_alpha   90.00000000
_cell_angle_beta   122.18400000
_cell_angle_gamma   90.00000000
_symmetry_Int_Tables_number   15
_chemical_formula_structural   Rb1Na6.5Ag16Sb1As6H88.5C64N41
_chemical_formula_sum   'Rb1 Na6.5 Ag16 Sb1 As6 H88.5 C64 N41'
_cell_volume   2732.69512021
_cell_formula_units_Z   1
loop_
 _symmetry_equiv_pos_site_id
 _symmetry_equiv_pos_as_xyz
  1  'x, y, z'
  2  '-x, -y, -z'
  3  '-x, y, -z+1/2'
  4  'x, -y, z+1/2'
  5  'x+1/2, y+1/2, z'
  6  '-x+1/2, -y+1/2, -z'
  7  '-x+1/2, y+1/2, -z+1/2'
  8  'x+1/2, -y+1/2, z+1/2'
loop_
 _atom_site_type_symbol
 _atom_site_label
 _atom_site_symmetry_multiplicity
 _atom_site_fract_x
 _atom_site_fract_y
 _atom_site_fract_z
 _atom_site_occupancy
  Na+  Na0  8  0.05720000  0.17340000  0.96900000  0.8125
  H+  H1  8  0.05720000  0.17340000  0.96900000  0.0625
  Rb+  Rb2  8  0.05720000  0.17340000  0.96900000  0.125
  Ag  Ag3  8  0.07299000  0.30005000  0.67752000  1.0
  Ag  Ag4  8  0.14961000  0.43750000  0.94050000  1.0
  H  H5  8  0.01210000  0.13360000  0.11750000  1.0
  H  H6  8  0.01270000  0.20660000  0.39600000  1.0
  H  H7  8  0.01650000  0.36990000  0.40830000  1.0
  H  H8  8  0.06900000  0.42480000  0.36480000  1.0
  H  H9  8  0.10520000  0.17960000  0.23040000  1.0
  H  H10  8  0.14630000  0.15180000  0.78530000  1.0
  H  H11  8  0.15380000  0.33200000  0.36310000  1.0
  H  H12  8  0.17680000  0.14960000  0.09790000  1.0
  H  H13  8  0.19620000  0.46090000  0.24840000  1.0
  H  H14  8  0.20020000  0.32070000  0.51540000  1.0
  H  H15  8  0.24590000  0.12400000  0.52590000  1.0
  As+  As16  8  0.21980000  0.23850000  0.81470000  0.75
  N+  N17  8  0.21980000  0.23850000  0.81470000  0.125
  Sb+  Sb18  8  0.21980000  0.23850000  0.81470000  0.125
  C  C19  8  0.04890000  0.17470000  0.13520000  1.0
  C  C20  8  0.08880000  0.39460000  0.43610000  1.0
  C  C21  8  0.11340000  0.18130000  0.06440000  1.0
  C  C22  8  0.12030000  0.43070000  0.56070000  1.0
  C  C23  8  0.16830000  0.24510000  0.08190000  1.0
  C  C24  8  0.17160000  0.49970000  0.20450000  1.0
  C  C25  8  0.18220000  0.35220000  0.44820000  1.0
  C  C26  8  0.21370000  0.17700000  0.83950000  1.0
  N  N27  8  0.11060000  0.29360000  0.00000000  1.0
  N  N28  8  0.11320000  0.40480000  0.66080000  1.0
  N  N29  8  0.14800000  0.45190000  0.75530000  1.0
  N  N30  8  0.15770000  0.49020000  0.58440000  1.0
  N  N31  8  0.18720000  0.34410000  0.05180000  1.0
