# generated using pymatgen
data_Fr0.33333333Cs6.66666667Li0.33333333Cu4H32.66666667Pb7.66666667C32.3333333
_symmetry_space_group_name_H-M  'C 1 2/c 1'
_cell_length_a   16.90400000
_cell_length_b   7.76590000
_cell_length_c   14.02920000
_cell_angle_alpha   90.00000000
_cell_angle_beta   98.18900000
_cell_angle_gamma   90.00000000
_symmetry_Int_Tables_number   15
_chemical_formula_structural
;
Fr0.33333333Cs6.66666667Li0.33333333Cu4H32.66666667Pb7.66666667C32.333
33333Br24N8
;
_chemical_formula_sum
;
Fr0.33333333 Cs6.66666667 Li0.33333333 Cu4 H32.66666667 Pb7.66666667
C32.33333333 Br24 N8
;
_cell_volume   1822.90153892
_cell_formula_units_Z   1
loop_
 _symmetry_equiv_pos_site_id
 _symmetry_equiv_pos_as_xyz
  1  'x, y, z'
  2  '-x, -y, -z'
  3  '-x, y, -z+1/2'
  4  'x, -y, z+1/2'
  5  'x+1/2, y+1/2, z'
  6  '-x+1/2, -y+1/2, -z'
  7  '-x+1/2, y+1/2, -z+1/2'
  8  'x+1/2, -y+1/2, z+1/2'
loop_
 _atom_site_type_symbol
 _atom_site_label
 _atom_site_symmetry_multiplicity
 _atom_site_fract_x
 _atom_site_fract_y
 _atom_site_fract_z
 _atom_site_occupancy
  Cs+  Cs0  8  0.06300000  0.27000000  0.64570000
  0.8333333333333334
  Fr+  Fr1  8  0.06300000  0.27000000  0.64570000
  0.041666666666666664
  Li+  Li2  8  0.06300000  0.27000000  0.64570000
  0.041666666666666664
  H+  H3  8  0.06300000  0.27000000  0.64570000  0.08333333333333333
  Cu  Cu4  4  0.00000000  0.04940000  0.25000000  1.0
  H  H5  8  0.02090000  0.28110000  0.48950000  1.0
  H  H6  8  0.10350000  0.39870000  0.39210000  1.0
  H  H7  8  0.18180000  0.35810000  0.71660000  1.0
  H  H8  8  0.23210000  0.02570000  0.37720000  1.0
  Pb+  Pb9  8  0.07100000  0.32210000  0.51550000
  0.9583333333333334
  C+  C10  8  0.07100000  0.32210000  0.51550000
  0.041666666666666664
  C  C11  8  0.11980000  0.39120000  0.45820000  1.0
  C  C12  8  0.16690000  0.36770000  0.65040000  1.0
  C  C13  8  0.19390000  0.45080000  0.49760000  1.0
  C  C14  8  0.21760000  0.43670000  0.59530000  1.0
  Br  Br15  8  0.08178000  0.15614000  0.84521000  1.0
  Br  Br16  8  0.09595000  0.23755000  0.20186000  1.0
  Br  Br17  8  0.23451000  0.04520000  0.07971000  1.0
  N  N18  8  0.09500000  0.31300000  0.60950000  1.0
