# generated using pymatgen
data_Ba2Ce4Mg1.33333333Be0.66666667Sn8Po3Se0.66666667S20O0.33333333
_symmetry_space_group_name_H-M  'P m c 21'
_cell_length_a   4.06650000
_cell_length_b   19.85900000
_cell_length_c   11.87300000
_cell_angle_alpha   90.00000000
_cell_angle_beta   90.00000000
_cell_angle_gamma   90.00000000
_symmetry_Int_Tables_number   26
_chemical_formula_structural
Ba2Ce4Mg1.33333333Be0.66666667Sn8Po3Se0.66666667S20O0.33333333
_chemical_formula_sum
'Ba2 Ce4 Mg1.33333333 Be0.66666667 Sn8 Po3 Se0.66666667 S20 O0.33333333'
_cell_volume   958.82339082
_cell_formula_units_Z   1
loop_
 _symmetry_equiv_pos_site_id
 _symmetry_equiv_pos_as_xyz
  1  'x, y, z'
  2  '-x, -y, z+1/2'
  3  '-x, y, z'
  4  'x, -y, z+1/2'
loop_
 _atom_site_type_symbol
 _atom_site_label
 _atom_site_symmetry_multiplicity
 _atom_site_fract_x
 _atom_site_fract_y
 _atom_site_fract_z
 _atom_site_occupancy
  Ba  Ba0  2  0.50000000  0.35886000  0.25014000  1.0
  Ce  Ce1  2  0.50000000  0.11848000  0.31760000  1.0
  Ce  Ce2  2  0.50000000  0.41874000  0.62667000  1.0
  Mg+  Mg3  2  0.50000000  0.07844000  0.68136000
  0.6666666666666666
  Be+  Be4  2  0.50000000  0.07844000  0.68136000
  0.3333333333333333
  Sn  Sn5  2  0.00000000  0.09019000  0.00526000  1.0
  Sn  Sn6  2  0.00000000  0.24831000  0.50209000  1.0
  Sn  Sn7  2  0.00000000  0.42615000  0.95625000  1.0
  Sn  Sn8  2  0.50000000  0.25922000  0.88582000  1.0
  O+  O9  2  0.00000000  0.23110000  0.29990000  0.08333333333333333
  Po+  Po10  2  0.00000000  0.23110000  0.29990000
  0.9166666666666666
  O+  O11  2  0.50000000  0.25750000  0.62010000
  0.08333333333333333
  Se+  Se12  2  0.50000000  0.25750000  0.62010000
  0.3333333333333333
  Po+  Po13  2  0.50000000  0.25750000  0.62010000
  0.5833333333333334
  S  S14  2  0.00000000  0.03660000  0.20450000  1.0
  S  S15  2  0.00000000  0.11990000  0.50390000  1.0
  S  S16  2  0.00000000  0.16220000  0.82040000  1.0
  S  S17  2  0.00000000  0.31650000  0.04460000  1.0
  S  S18  2  0.00000000  0.35750000  0.77380000  1.0
  S  S19  2  0.00000000  0.37420000  0.46400000  1.0
  S  S20  2  0.00000000  0.47580000  0.15250000  1.0
  S  S21  2  0.50000000  0.01700000  0.93660000  1.0
  S  S22  2  0.50000000  0.16800000  0.07820000  1.0
  S  S23  2  0.50000000  0.48950000  0.89840000  1.0
