# generated using pymatgen
data_Sn2.33333333Ge1.66666667H8Pb4C20S4O16
_symmetry_space_group_name_H-M  'P m c 21'
_cell_length_a   17.99000000
_cell_length_b   5.67200000
_cell_length_c   6.85190000
_cell_angle_alpha   90.00000000
_cell_angle_beta   90.00000000
_cell_angle_gamma   90.00000000
_symmetry_Int_Tables_number   26
_chemical_formula_structural   Sn2.33333333Ge1.66666667H8Pb4C20S4O16
_chemical_formula_sum   'Sn2.33333333 Ge1.66666667 H8 Pb4 C20 S4 O16'
_cell_volume   699.16294263
_cell_formula_units_Z   1
loop_
 _symmetry_equiv_pos_site_id
 _symmetry_equiv_pos_as_xyz
  1  'x, y, z'
  2  '-x, -y, z+1/2'
  3  '-x, y, z'
  4  'x, -y, z+1/2'
loop_
 _atom_site_type_symbol
 _atom_site_label
 _atom_site_symmetry_multiplicity
 _atom_site_fract_x
 _atom_site_fract_y
 _atom_site_fract_z
 _atom_site_occupancy
  Ge+  Ge0  4  0.43370000  0.36900000  0.30030000
  0.4166666666666667
  Sn+  Sn1  4  0.43370000  0.36900000  0.30030000
  0.5833333333333334
  H  H2  4  0.06940000  0.10450000  0.08650000  1.0
  H  H3  4  0.43670000  0.26700000  0.81200000  1.0
  Pb  Pb4  4  0.26013000  0.22843000  0.85970000  1.0
  C  C5  4  0.04010000  0.02400000  0.55300000  1.0
  C  C6  4  0.06890000  0.25200000  0.49500000  1.0
  C  C7  4  0.14790000  0.31600000  0.48800000  1.0
  C  C8  4  0.36320000  0.29500000  0.20700000  1.0
  C  C9  4  0.46310000  0.40760000  0.82450000  1.0
  S  S10  2  0.00000000  0.43720000  0.43490000  1.0
  S  S11  2  0.50000000  0.15770000  0.36330000  1.0
  O  O12  4  0.15850000  0.49210000  0.90900000  1.0
  O  O13  4  0.19500000  0.17200000  0.54000000  1.0
  O  O14  4  0.31800000  0.45300000  0.16260000  1.0
  O  O15  4  0.35190000  0.08330000  0.18060000  1.0
