# generated using pymatgen
data_Si0.33333333Ge0.16666667H8Pb2.5C4Fl1I0.16666667Br3.83333333N4O4F8
_symmetry_space_group_name_H-M  'P 21 21 21'
_cell_length_a   4.54700000
_cell_length_b   5.94700000
_cell_length_c   14.73100000
_cell_angle_alpha   90.00000000
_cell_angle_beta   90.00000000
_cell_angle_gamma   90.00000000
_symmetry_Int_Tables_number   19
_chemical_formula_structural
Si0.33333333Ge0.16666667H8Pb2.5C4Fl1I0.16666667Br3.83333333N4O4F8
_chemical_formula_sum
;
Si0.33333333 Ge0.16666667 H8 Pb2.5 C4 Fl1 I0.16666667 Br3.83333333 N4
O4 F8
;
_cell_volume   398.34110358
_cell_formula_units_Z   1
loop_
 _symmetry_equiv_pos_site_id
 _symmetry_equiv_pos_as_xyz
  1  'x, y, z'
  2  '-x+1/2, -y, z+1/2'
  3  'x+1/2, -y+1/2, -z'
  4  '-x, y+1/2, -z+1/2'
loop_
 _atom_site_type_symbol
 _atom_site_label
 _atom_site_symmetry_multiplicity
 _atom_site_fract_x
 _atom_site_fract_y
 _atom_site_fract_z
 _atom_site_occupancy
  H  H0  4  0.05000000  0.62000000  0.89000000  1.0
  H  H1  4  0.20000000  0.84000000  0.54000000  1.0
  C  C2  4  0.17400000  0.03680000  0.06910000  1.0
  Pb+  Pb3  4  0.21800000  0.69740000  0.15920000  0.625
  Fl+  Fl4  4  0.21800000  0.69740000  0.15920000  0.25
  Ge+  Ge5  4  0.21800000  0.69740000  0.15920000
  0.041666666666666664
  Si+  Si6  4  0.21800000  0.69740000  0.15920000
  0.08333333333333333
  I+  I7  4  0.06890000  0.43430000  0.68910000
  0.041666666666666664
  Br+  Br8  4  0.06890000  0.43430000  0.68910000
  0.9583333333333334
  N  N9  4  0.15920000  0.12140000  0.61170000  1.0
  O  O10  4  0.09420000  0.53660000  0.43210000  1.0
  F  F11  4  0.03940000  0.57250000  0.10840000  1.0
  F  F12  4  0.05650000  0.76110000  0.23010000  1.0
