# generated using pymatgen
data_Fr0.5Cs0.5K2Sn1Ge0.5H49C53.5Fl1N4O8
_symmetry_space_group_name_H-M  'P 21 21 21'
_cell_length_a   6.08820000
_cell_length_b   9.18620000
_cell_length_c   21.08000000
_cell_angle_alpha   90.00000000
_cell_angle_beta   90.00000000
_cell_angle_gamma   90.00000000
_symmetry_Int_Tables_number   19
_chemical_formula_structural   Fr0.5Cs0.5K2Sn1Ge0.5H49C53.5Fl1N4O8
_chemical_formula_sum
'Fr0.5 Cs0.5 K2 Sn1 Ge0.5 H49 C53.5 Fl1 N4 O8'
_cell_volume   1178.95007347
_cell_formula_units_Z   1
loop_
 _symmetry_equiv_pos_site_id
 _symmetry_equiv_pos_as_xyz
  1  'x, y, z'
  2  '-x+1/2, -y, z+1/2'
  3  'x+1/2, -y+1/2, -z'
  4  '-x, y+1/2, -z+1/2'
loop_
 _atom_site_type_symbol
 _atom_site_label
 _atom_site_symmetry_multiplicity
 _atom_site_fract_x
 _atom_site_fract_y
 _atom_site_fract_z
 _atom_site_occupancy
  Cs+  Cs0  4  0.19310000  0.89150000  0.85490000  0.125
  K+  K1  4  0.19310000  0.89150000  0.85490000  0.5
  H+  H2  4  0.19310000  0.89150000  0.85490000  0.25
  Fr+  Fr3  4  0.19310000  0.89150000  0.85490000  0.125
  H  H4  4  0.00260000  0.80080000  0.45920000  1.0
  H  H5  4  0.00820000  0.69930000  0.20290000  1.0
  H  H6  4  0.02900000  0.51010000  0.79480000  1.0
  H  H7  4  0.05300000  0.96670000  0.44930000  1.0
  H  H8  4  0.07830000  0.36620000  0.57040000  1.0
  H  H9  4  0.09700000  0.74770000  0.30340000  1.0
  H  H10  4  0.09990000  0.15320000  0.51040000  1.0
  H  H11  4  0.11060000  0.99950000  0.10170000  1.0
  H  H12  4  0.14360000  0.88560000  0.50930000  1.0
  H  H13  4  0.15250000  0.27050000  0.88580000  1.0
  H  H14  4  0.18700000  0.66220000  0.62290000  1.0
  H  H15  4  0.22020000  0.46550000  0.21280000  1.0
  C  C16  4  0.00670000  0.78460000  0.17918000  1.0
  C  C17  4  0.00700000  0.06430000  0.74102000  1.0
  C  C18  4  0.01300000  0.66520000  0.96037000  1.0
  C  C19  4  0.02260000  0.89260000  0.48020000  1.0
  C  C20  4  0.02450000  0.79250000  0.92384000  1.0
  C  C21  4  0.11600000  0.21930000  0.84918000  1.0
  C  C22  4  0.14210000  0.57750000  0.70961000  1.0
  C  C23  4  0.15310000  0.29990000  0.37120000  1.0
  C  C24  4  0.16080000  0.42600000  0.40856000  1.0
  C  C25  4  0.16850000  0.55800000  0.95295000  1.0
  C  C26  4  0.18800000  0.80780000  0.87969000  1.0
  C  C27  4  0.20860000  0.13150000  0.74514000  1.0
  Sn+  Sn28  4  0.08670000  0.65420000  0.65596000  0.25
  Ge+  Ge29  4  0.08670000  0.65420000  0.65596000  0.125
  Fl+  Fl30  4  0.08670000  0.65420000  0.65596000  0.25
  C+  C31  4  0.08670000  0.65420000  0.65596000  0.375
  C  C32  4  0.23430000  0.79140000  0.30001000  1.0
  N  N33  4  0.14670000  0.88490000  0.19232000  1.0
  O  O34  4  0.01250000  0.53440000  0.40249000  1.0
  O  O35  4  0.17130000  0.42910000  0.98597000  1.0
