# generated using pymatgen
data_Rb5.5Li2.5V8Po0.5Te0.5H24C64O25Lv14
_symmetry_space_group_name_H-M  'I 41 2 2'
_cell_length_a   15.12150000
_cell_length_b   15.12150000
_cell_length_c   12.06830000
_cell_angle_alpha   90.00000000
_cell_angle_beta   90.00000000
_cell_angle_gamma   90.00000000
_symmetry_Int_Tables_number   98
_chemical_formula_structural   Rb5.5Li2.5V8Po0.5Te0.5H24C64O25Lv14
_chemical_formula_sum   'Rb5.5 Li2.5 V8 Po0.5 Te0.5 H24 C64 O25 Lv14'
_cell_volume   2759.53460876
_cell_formula_units_Z   1
loop_
 _symmetry_equiv_pos_site_id
 _symmetry_equiv_pos_as_xyz
  1  'x, y, z'
  2  '-y+1/2, x, z+3/4'
  3  '-x, -y, z'
  4  'y+1/2, -x, z+3/4'
  5  'x+1/2, -y, -z+3/4'
  6  '-y, -x, -z'
  7  '-x+1/2, y, -z+3/4'
  8  'y, x, -z'
  9  'x+1/2, y+1/2, z+1/2'
  10  '-y, x+1/2, z+1/4'
  11  '-x+1/2, -y+1/2, z+1/2'
  12  'y, -x+1/2, z+1/4'
  13  'x, -y+1/2, -z+1/4'
  14  '-y+1/2, -x+1/2, -z+1/2'
  15  '-x, y+1/2, -z+1/4'
  16  'y+1/2, x+1/2, -z+1/2'
loop_
 _atom_site_type_symbol
 _atom_site_label
 _atom_site_symmetry_multiplicity
 _atom_site_fract_x
 _atom_site_fract_y
 _atom_site_fract_z
 _atom_site_occupancy
  Li+  Li0  8  0.18480000  0.75000000  0.62500000  0.3125
  Rb+  Rb1  8  0.18480000  0.75000000  0.62500000  0.6875
  V  V2  8  0.18300000  0.68300000  0.25000000  1.0
  H  H3  16  0.07140000  0.62030000  0.82830000  1.0
  H  H4  8  0.00000000  0.00000000  0.11800000  1.0
  C  C5  16  0.04075000  0.56864000  0.87179000  1.0
  C  C6  16  0.04075000  0.56864000  0.98730000  1.0
  C  C7  16  0.08860000  0.63660000  0.04720000  1.0
  C  C8  8  0.00000000  0.00000000  0.20500000  1.0
  C  C9  8  0.00000000  0.00000000  0.43595000  1.0
  O  O10  8  0.24920000  0.75000000  0.62500000  1.0
  Lv+  Lv11  16  0.11290000  0.62280000  0.14460000  0.875
  Po+  Po12  16  0.11290000  0.62280000  0.14460000  0.03125
  O+  O13  16  0.11290000  0.62280000  0.14460000  0.0625
  Te+  Te14  16  0.11290000  0.62280000  0.14460000  0.03125
  O  O15  16  0.10540000  0.70860000  0.00130000  1.0
