# generated using pymatgen
data_Sr3Be5Te0.33333333P16S7O40Lv0.66666667
_symmetry_space_group_name_H-M  'C 2 2 21'
_cell_length_a   9.96800000
_cell_length_b   10.08000000
_cell_length_c   8.69200000
_cell_angle_alpha   90.00000000
_cell_angle_beta   90.00000000
_cell_angle_gamma   90.00000000
_symmetry_Int_Tables_number   20
_chemical_formula_structural   Sr3Be5Te0.33333333P16S7O40Lv0.66666667
_chemical_formula_sum
'Sr3 Be5 Te0.33333333 P16 S7 O40 Lv0.66666667'
_cell_volume   873.34990848
_cell_formula_units_Z   1
loop_
 _symmetry_equiv_pos_site_id
 _symmetry_equiv_pos_as_xyz
  1  'x, y, z'
  2  '-x, -y, z+1/2'
  3  'x, -y, -z'
  4  '-x, y, -z+1/2'
  5  'x+1/2, y+1/2, z'
  6  '-x+1/2, -y+1/2, z+1/2'
  7  'x+1/2, -y+1/2, -z'
  8  '-x+1/2, y+1/2, -z+1/2'
loop_
 _atom_type_symbol
 _atom_type_oxidation_number
  Sr0+  0.0
  Be0+  0.0
  Te0+  0.0
  P0+  0.0
  S0+  0.0
  O0+  0.0
  Lv0+  0.0
loop_
 _atom_site_type_symbol
 _atom_site_label
 _atom_site_symmetry_multiplicity
 _atom_site_fract_x
 _atom_site_fract_y
 _atom_site_fract_z
 _atom_site_occupancy
  Be0+  Be0  8  0.09680000  0.27280000  0.97980000  0.625
  Sr0+  Sr1  8  0.09680000  0.27280000  0.97980000  0.375
  P0+  P2  8  0.22740000  0.11810000  0.22690000  1.0
  P0+  P3  4  0.00000000  0.06930000  0.75000000  1.0
  P0+  P4  4  0.09050000  0.50000000  0.50000000  1.0
  O0+  O5  8  0.01640000  0.37440000  0.47690000  1.0
  O0+  O6  8  0.03130000  0.14110000  0.89360000  1.0
  O0+  O7  8  0.11550000  0.02910000  0.30030000  1.0
  O0+  O8  8  0.17750000  0.21760000  0.12170000  1.0
  O0+  O9  8  0.19350000  0.33400000  0.86020000  1.0
  S0+  S10  8  0.19160000  0.49360000  0.63500000  0.875
  Lv0+  Lv11  8  0.19160000  0.49360000  0.63500000
  0.08333333333333333
  Te0+  Te12  8  0.19160000  0.49360000  0.63500000
  0.041666666666666664
