# generated using pymatgen
data_Na4Er4Po3.5Te2H48C48Se2S0.5O40
_symmetry_space_group_name_H-M  'C 2 2 21'
_cell_length_a   6.87810000
_cell_length_b   30.38900000
_cell_length_c   7.45930000
_cell_angle_alpha   90.00000000
_cell_angle_beta   90.00000000
_cell_angle_gamma   90.00000000
_symmetry_Int_Tables_number   20
_chemical_formula_structural   Na4Er4Po3.5Te2H48C48Se2S0.5O40
_chemical_formula_sum   'Na4 Er4 Po3.5 Te2 H48 C48 Se2 S0.5 O40'
_cell_volume   1559.13230051
_cell_formula_units_Z   1
loop_
 _symmetry_equiv_pos_site_id
 _symmetry_equiv_pos_as_xyz
  1  'x, y, z'
  2  '-x, -y, z+1/2'
  3  'x, -y, -z'
  4  '-x, y, -z+1/2'
  5  'x+1/2, y+1/2, z'
  6  '-x+1/2, -y+1/2, z+1/2'
  7  'x+1/2, -y+1/2, -z'
  8  '-x+1/2, y+1/2, -z+1/2'
loop_
 _atom_site_type_symbol
 _atom_site_label
 _atom_site_symmetry_multiplicity
 _atom_site_fract_x
 _atom_site_fract_y
 _atom_site_fract_z
 _atom_site_occupancy
  Na  Na0  4  0.00000000  0.35768000  0.75000000  1.0
  Er  Er1  4  0.00000000  0.19652300  0.25000000  1.0
  Se+  Se2  8  0.06960000  0.17956000  0.55240000  0.25
  Po+  Po3  8  0.06960000  0.17956000  0.55240000  0.4375
  S+  S4  8  0.06960000  0.17956000  0.55240000  0.0625
  Te+  Te5  8  0.06960000  0.17956000  0.55240000  0.25
  H  H6  8  0.09800000  0.38630000  0.39400000  1.0
  H  H7  8  0.10900000  0.40300000  0.08000000  1.0
  H  H8  8  0.11000000  0.15660000  0.60100000  1.0
  H  H9  8  0.21000000  0.45020000  0.75200000  1.0
  H  H10  8  0.21160000  0.47350000  0.24930000  1.0
  H  H11  8  0.21600000  0.20920000  0.74100000  1.0
  C  C12  8  0.08870000  0.21310000  0.68660000  1.0
  C  C13  8  0.11160000  0.25632000  0.58730000  1.0
  C  C14  8  0.17110000  0.01127000  0.74900000  1.0
  C  C15  8  0.17280000  0.03452000  0.25100000  1.0
  C  C16  4  0.00000000  0.03430000  0.75000000  1.0
  C  C17  4  0.00000000  0.05690000  0.25000000  1.0
  C  C18  4  0.00000000  0.08420000  0.75000000  1.0
  C  C19  4  0.00000000  0.10610000  0.25000000  1.0
  O  O20  8  0.00910000  0.39630000  0.48580000  1.0
  O  O21  8  0.04700000  0.25805000  0.43170000  1.0
  O  O22  8  0.15230000  0.10377000  0.70560000  1.0
  O  O23  8  0.15820000  0.12721000  0.24440000  1.0
  O  O24  8  0.18740000  0.28822000  0.67100000  1.0
