# generated using pymatgen
data_H48Ds0.75Ni1.75Pd1.5Pt4C32S32
_symmetry_space_group_name_H-M  'P 4/n c c :2'
_cell_length_a   12.71300000
_cell_length_b   12.71300000
_cell_length_c   11.81800000
_cell_angle_alpha   90.00000000
_cell_angle_beta   90.00000000
_cell_angle_gamma   90.00000000
_symmetry_Int_Tables_number   130
_chemical_formula_structural   H48Ds0.75Ni1.75Pd1.5Pt4C32S32
_chemical_formula_sum   'H48 Ds0.75 Ni1.75 Pd1.5 Pt4 C32 S32'
_cell_volume   1910.02952084
_cell_formula_units_Z   1
loop_
 _symmetry_equiv_pos_site_id
 _symmetry_equiv_pos_as_xyz
  1  'x, y, z'
  2  '-y+1/2, x, z'
  3  '-x+1/2, -y+1/2, z'
  4  'y, -x+1/2, z'
  5  'x+1/2, -y, -z+1/2'
  6  '-y, -x, -z+1/2'
  7  '-x, y+1/2, -z+1/2'
  8  'y+1/2, x+1/2, -z+1/2'
  9  '-x, -y, -z'
  10  'y+1/2, -x, -z'
  11  'x+1/2, y+1/2, -z'
  12  '-y, x+1/2, -z'
  13  '-x+1/2, y, z+1/2'
  14  'y, x, z+1/2'
  15  'x, -y+1/2, z+1/2'
  16  '-y+1/2, -x+1/2, z+1/2'
loop_
 _atom_site_type_symbol
 _atom_site_label
 _atom_site_symmetry_multiplicity
 _atom_site_fract_x
 _atom_site_fract_y
 _atom_site_fract_z
 _atom_site_occupancy
  H  H0  16  0.05270000  0.57670000  0.11250000  1.0
  H  H1  16  0.09900000  0.60020000  0.50750000  1.0
  H  H2  16  0.12190000  0.66700000  0.39870000  1.0
  Ds+  Ds3  4  0.25000000  0.25000000  0.44732000  0.1875
  Ni+  Ni4  4  0.25000000  0.25000000  0.44732000  0.4375
  Pd+  Pd5  4  0.25000000  0.25000000  0.44732000  0.375
  Pt  Pt6  4  0.25000000  0.25000000  0.18183000  1.0
  C  C7  16  0.03800000  0.16050000  0.06390000  1.0
  C  C8  16  0.07580000  0.61580000  0.43210000  1.0
  S  S9  16  0.07170000  0.21270000  0.93980000  1.0
  S  S10  16  0.09910000  0.14770000  0.18610000  1.0
