# generated using pymatgen
data_Ba4Fe4Si16Se5.5S2.5O32
_symmetry_space_group_name_H-M  'P 4/n c c :2'
_cell_length_a   7.49200000
_cell_length_b   7.49200000
_cell_length_c   15.94300000
_cell_angle_alpha   90.00000000
_cell_angle_beta   90.00000000
_cell_angle_gamma   90.00000000
_symmetry_Int_Tables_number   130
_chemical_formula_structural   Ba4Fe4Si16Se5.5S2.5O32
_chemical_formula_sum   'Ba4 Fe4 Si16 Se5.5 S2.5 O32'
_cell_volume   894.88161035
_cell_formula_units_Z   1
loop_
 _symmetry_equiv_pos_site_id
 _symmetry_equiv_pos_as_xyz
  1  'x, y, z'
  2  '-y+1/2, x, z'
  3  '-x+1/2, -y+1/2, z'
  4  'y, -x+1/2, z'
  5  'x+1/2, -y, -z+1/2'
  6  '-y, -x, -z+1/2'
  7  '-x, y+1/2, -z+1/2'
  8  'y+1/2, x+1/2, -z+1/2'
  9  '-x, -y, -z'
  10  'y+1/2, -x, -z'
  11  'x+1/2, y+1/2, -z'
  12  '-y, x+1/2, -z'
  13  '-x+1/2, y, z+1/2'
  14  'y, x, z+1/2'
  15  'x, -y+1/2, z+1/2'
  16  '-y+1/2, -x+1/2, z+1/2'
loop_
 _atom_site_type_symbol
 _atom_site_label
 _atom_site_symmetry_multiplicity
 _atom_site_fract_x
 _atom_site_fract_y
 _atom_site_fract_z
 _atom_site_occupancy
  Ba  Ba0  4  0.25000000  0.75000000  0.00000000  1
  Fe  Fe1  4  0.25000000  0.25000000  0.09080000  1
  Si  Si2  16  0.01950000  0.06350000  0.34500000  1
  Se+  Se3  8  0.02740000  0.52740000  0.25000000  0.6875
  S+  S4  8  0.02740000  0.52740000  0.25000000  0.3125
  O  O5  16  0.00220000  0.22320000  0.86420000  1
  O  O6  16  0.02920000  0.10930000  0.09260000  1
