# generated using pymatgen
data_Ca4Cr4Sn14.75Ge1.25O40
_symmetry_space_group_name_H-M  'P 4/n c c :1'
_cell_length_a   7.37800000
_cell_length_b   7.37800000
_cell_length_c   15.11900000
_cell_angle_alpha   90.00000000
_cell_angle_beta   90.00000000
_cell_angle_gamma   90.00000000
_symmetry_Int_Tables_number   130
_chemical_formula_structural   Ca4Cr4Sn14.75Ge1.25O40
_chemical_formula_sum   'Ca4 Cr4 Sn14.75 Ge1.25 O40'
_cell_volume   823.00101120
_cell_formula_units_Z   1
loop_
 _symmetry_equiv_pos_site_id
 _symmetry_equiv_pos_as_xyz
  1  'x, y, z'
  2  '-y+1/2, x+1/2, z'
  3  '-x, -y, z'
  4  'y+1/2, -x+1/2, z'
  5  'x+1/2, -y+1/2, -z+1/2'
  6  '-y, -x, -z+1/2'
  7  '-x+1/2, y+1/2, -z+1/2'
  8  'y, x, -z+1/2'
  9  '-x+1/2, -y+1/2, -z'
  10  'y, -x, -z'
  11  'x+1/2, y+1/2, -z'
  12  '-y, x, -z'
  13  '-x, y, z+1/2'
  14  'y+1/2, x+1/2, z+1/2'
  15  'x, -y, z+1/2'
  16  '-y+1/2, -x+1/2, z+1/2'
loop_
 _atom_site_type_symbol
 _atom_site_label
 _atom_site_symmetry_multiplicity
 _atom_site_fract_x
 _atom_site_fract_y
 _atom_site_fract_z
 _atom_site_occupancy
  Ca  Ca0  4  0.00000000  0.00000000  0.00000000  1
  Cr  Cr1  4  0.00000000  0.50000000  0.07951000  1
  Sn+  Sn2  16  0.17208000  0.25310000  0.35199000  0.921875
  Ge+  Ge3  16  0.17208000  0.25310000  0.35199000  0.078125
  O  O4  16  0.04501000  0.25171000  0.87167000  1
  O  O5  16  0.10627000  0.25049000  0.08189000  1
  O  O6  8  0.20819000  0.20819000  0.25000000  1
