# generated using pymatgen
data_Si0.5Ge1H56C26Fl0.5S8I4N19Mc1
_symmetry_space_group_name_H-M  'P 21 c n'
_cell_length_a   14.86900000
_cell_length_b   11.31200000
_cell_length_c   8.30500000
_cell_angle_alpha   90.00000000
_cell_angle_beta   90.00000000
_cell_angle_gamma   90.00000000
_symmetry_Int_Tables_number   33
_chemical_formula_structural   Si0.5Ge1H56C26Fl0.5S8I4N19Mc1
_chemical_formula_sum   'Si0.5 Ge1 H56 C26 Fl0.5 S8 I4 N19 Mc1'
_cell_volume   1396.88545304
_cell_formula_units_Z   1
loop_
 _symmetry_equiv_pos_site_id
 _symmetry_equiv_pos_as_xyz
  1  'x, y, z'
  2  'x+1/2, -y, -z'
  3  'x+1/2, y+1/2, -z+1/2'
  4  'x, -y+1/2, z+1/2'
loop_
 _atom_site_type_symbol
 _atom_site_label
 _atom_site_symmetry_multiplicity
 _atom_site_fract_x
 _atom_site_fract_y
 _atom_site_fract_z
 _atom_site_occupancy
  H  H0  4  0.00200000  0.57100000  0.99350000  1
  H  H1  4  0.04360000  0.19360000  0.09600000  1
  H  H2  4  0.06350000  0.67130000  0.61280000  1
  H  H3  4  0.06620000  0.67140000  0.88590000  1
  H  H4  4  0.07290000  0.10880000  0.60500000  1
  H  H5  4  0.16400000  0.05940000  0.98300000  1
  H  H6  4  0.21460000  0.03500000  0.53100000  1
  H  H7  4  0.26880000  0.66250000  0.61860000  1
  H  H8  4  0.27730000  0.67220000  0.88730000  1
  H  H9  4  0.28970000  0.13090000  0.89800000  1
  H  H10  4  0.32500000  0.16670000  0.42200000  1
  H  H11  4  0.35010000  0.58650000  0.51090000  1
  H  H12  4  0.36450000  0.60470000  0.99050000  1
  H  H13  4  0.49620000  0.07270000  0.99170000  1
  C  C14  4  0.10250000  0.22300000  0.05400000  1
  C  C15  4  0.16100000  0.14480000  0.99400000  1
  C+  C16  4  0.24470000  0.18700000  0.94500000  0.5
  Ge+  Ge17  4  0.24470000  0.18700000  0.94500000  0.25
  Si+  Si18  4  0.24470000  0.18700000  0.94500000  0.125
  Fl+  Fl19  4  0.24470000  0.18700000  0.94500000  0.125
  C  C20  4  0.20090000  0.12100000  0.51900000  1
  C  C21  4  0.26490000  0.19700000  0.45700000  1
  C  C22  4  0.36830000  0.58990000  0.74980000  1
  C  C23  4  0.49000000  0.06060000  0.74790000  1
  S  S24  4  0.41460000  0.55380000  0.24910000  1
  S  S25  4  0.46590000  0.50810000  0.74880000  1
  I  I26  4  0.16970000  0.65971000  0.25337000  1
  N  N27  4  0.01920000  0.60480000  0.61260000  1
  N  N28  4  0.12050000  0.16370000  0.56440000  1
  N  N29  4  0.32550000  0.61500000  0.61600000  1
  N  N30  4  0.33410000  0.62490000  0.88670000  1
  Mc+  Mc31  4  0.02190000  0.60490000  0.88820000  0.25
  N+  N32  4  0.02190000  0.60490000  0.88820000  0.75
