# generated using pymatgen
data_Rb3.75K0.25H32C52N8Ts1.75Cl2.25O4
_symmetry_space_group_name_H-M  'P n a 21'
_cell_length_a   12.28790000
_cell_length_b   9.64220000
_cell_length_c   10.36420000
_cell_angle_alpha   90.00000000
_cell_angle_beta   90.00000000
_cell_angle_gamma   90.00000000
_symmetry_Int_Tables_number   33
_chemical_formula_structural   Rb3.75K0.25H32C52N8Ts1.75Cl2.25O4
_chemical_formula_sum   'Rb3.75 K0.25 H32 C52 N8 Ts1.75 Cl2.25 O4'
_cell_volume   1227.97518001
_cell_formula_units_Z   1
loop_
 _symmetry_equiv_pos_site_id
 _symmetry_equiv_pos_as_xyz
  1  'x, y, z'
  2  '-x, -y, z+1/2'
  3  '-x+1/2, y+1/2, z+1/2'
  4  'x+1/2, -y+1/2, z'
loop_
 _atom_site_type_symbol
 _atom_site_label
 _atom_site_symmetry_multiplicity
 _atom_site_fract_x
 _atom_site_fract_y
 _atom_site_fract_z
 _atom_site_occupancy
  Rb+  Rb0  4  0.06280000  0.15040000  0.49550000  0.9375
  K+  K1  4  0.06280000  0.15040000  0.49550000  0.0625
  H  H2  4  0.04280000  0.42840000  0.78130000  1.0
  H  H3  4  0.06170000  0.98970000  0.09410000  1.0
  H  H4  4  0.08500000  0.62190000  0.46780000  1.0
  H  H5  4  0.11570000  0.35820000  0.58940000  1.0
  H  H6  4  0.17800000  0.94280000  0.87040000  1.0
  H  H7  4  0.19090000  0.27960000  0.11060000  1.0
  H  H8  4  0.21100000  0.43940000  0.28780000  1.0
  H  H9  4  0.23440000  0.07700000  0.18110000  1.0
  C  C10  4  0.02145000  0.34440000  0.74510000  1.0
  C  C11  4  0.03276000  0.17700000  0.57410000  1.0
  C  C12  4  0.04132000  0.90650000  0.13260000  1.0
  C  C13  4  0.05581000  0.73997000  0.30916000  1.0
  C  C14  4  0.06450000  0.30260000  0.63060000  1.0
  C  C15  4  0.06476000  0.76790000  0.74300000  1.0
  C  C16  4  0.08750000  0.86715000  0.25212000  1.0
  C  C17  4  0.10462000  0.70438000  0.42751000  1.0
  C  C18  4  0.17479000  0.81650000  0.72270000  1.0
  C  C19  4  0.18017000  0.78848000  0.48450000  1.0
  C  C20  4  0.20463000  0.91298000  0.41795000  1.0
  C  C21  4  0.21820000  0.90860000  0.80140000  1.0
  C  C22  4  0.23288000  0.74980000  0.61120000  1.0
  N  N23  4  0.02036000  0.27340000  0.25460000  1.0
  N  N24  4  0.16299000  0.95206000  0.30888000  1.0
  Ts+  Ts25  4  0.20007000  0.52688000  0.98433000  0.4375
  Cl+  Cl26  4  0.20007000  0.52688000  0.98433000  0.5625
  O  O27  4  0.22815000  0.60309000  0.62021000  1.0
