# generated using pymatgen
data_Li8Po0.5P8Fl2.5Pb5C0.5Se0.5S3O28
_symmetry_space_group_name_H-M  'P n a 21'
_cell_length_a   7.94500000
_cell_length_b   18.46000000
_cell_length_c   4.92800000
_cell_angle_alpha   90.00000000
_cell_angle_beta   90.00000000
_cell_angle_gamma   90.00000000
_symmetry_Int_Tables_number   33
_chemical_formula_structural   Li8Po0.5P8Fl2.5Pb5C0.5Se0.5S3O28
_chemical_formula_sum   'Li8 Po0.5 P8 Fl2.5 Pb5 C0.5 Se0.5 S3 O28'
_cell_volume   722.76364160
_cell_formula_units_Z   1
loop_
 _symmetry_equiv_pos_site_id
 _symmetry_equiv_pos_as_xyz
  1  'x, y, z'
  2  '-x, -y, z+1/2'
  3  '-x+1/2, y+1/2, z+1/2'
  4  'x+1/2, -y+1/2, z'
loop_
 _atom_type_symbol
 _atom_type_oxidation_number
  Li0+  0.0
  Po0+  0.0
  P0+  0.0
  Pb0+  0.0
  C0+  0.0
  Se0+  0.0
  S0+  0.0
  O0+  0.0
  Fl0+  0.0
loop_
 _atom_site_type_symbol
 _atom_site_label
 _atom_site_symmetry_multiplicity
 _atom_site_fract_x
 _atom_site_fract_y
 _atom_site_fract_z
 _atom_site_occupancy
  Li0+  Li0  4  0.01100000  0.94500000  0.94300000  1.0
  Li0+  Li1  4  0.18600000  0.35000000  0.43100000  1.0
  P0+  P2  4  0.21270000  0.67970000  0.94340000  1.0
  P0+  P3  4  0.23360000  0.92840000  0.44620000  1.0
  Fl0+  Fl4  4  0.02959000  0.77163000  0.48180000  0.625
  Pb0+  Pb5  4  0.02959000  0.77163000  0.48180000  0.25
  C0+  C6  4  0.02959000  0.77163000  0.48180000  0.125
  Pb0+  Pb7  4  0.17415000  0.55374000  0.50000000  1.0
  Po0+  Po8  4  0.19300000  0.68410000  0.24700000  0.125
  S0+  S9  4  0.19300000  0.68410000  0.24700000  0.75
  Se0+  Se10  4  0.19300000  0.68410000  0.24700000  0.125
  O0+  O11  4  0.05600000  0.64670000  0.81200000  1.0
  O0+  O12  4  0.08200000  0.96540000  0.31900000  1.0
  O0+  O13  4  0.10600000  0.47230000  0.86400000  1.0
  O0+  O14  4  0.14000000  0.13370000  0.37000000  1.0
  O0+  O15  4  0.21500000  0.92690000  0.76300000  1.0
  O0+  O16  4  0.23100000  0.75620000  0.82600000  1.0
  O0+  O17  4  0.24600000  0.35170000  0.84100000  1.0
