# generated using pymatgen
data_Fr1.66666667Cs1K6Li1.33333333Y2Co4N24O48
_symmetry_space_group_name_H-M  'P n -3 :1'
_cell_length_a   10.34000000
_cell_length_b   10.34000000
_cell_length_c   10.34000000
_cell_angle_alpha   90.00000000
_cell_angle_beta   90.00000000
_cell_angle_gamma   90.00000000
_symmetry_Int_Tables_number   201
_chemical_formula_structural
Fr1.66666667Cs1K6Li1.33333333Y2Co4N24O48
_chemical_formula_sum
'Fr1.66666667 Cs1 K6 Li1.33333333 Y2 Co4 N24 O48'
_cell_volume   1105.50730400
_cell_formula_units_Z   1
loop_
 _symmetry_equiv_pos_site_id
 _symmetry_equiv_pos_as_xyz
  1  'x, y, z'
  2  '-x, -y, z'
  3  'x, -y, -z'
  4  '-x, y, -z'
  5  'z, x, y'
  6  'z, -x, -y'
  7  '-z, x, -y'
  8  '-z, -x, y'
  9  'y, z, x'
  10  '-y, z, -x'
  11  '-y, -z, x'
  12  'y, -z, -x'
  13  '-x+1/2, -y+1/2, -z+1/2'
  14  'x+1/2, y+1/2, -z+1/2'
  15  '-x+1/2, y+1/2, z+1/2'
  16  'x+1/2, -y+1/2, z+1/2'
  17  '-z+1/2, -x+1/2, -y+1/2'
  18  '-z+1/2, x+1/2, y+1/2'
  19  'z+1/2, -x+1/2, y+1/2'
  20  'z+1/2, x+1/2, -y+1/2'
  21  '-y+1/2, -z+1/2, -x+1/2'
  22  'y+1/2, -z+1/2, x+1/2'
  23  'y+1/2, z+1/2, -x+1/2'
  24  '-y+1/2, z+1/2, x+1/2'
loop_
 _atom_type_symbol
 _atom_type_oxidation_number
  Fr0+  0.0
  Cs0+  0.0
  K0+  0.0
  Li0+  0.0
  Y0+  0.0
  Co0+  0.0
  N0+  0.0
  O0+  0.0
loop_
 _atom_site_type_symbol
 _atom_site_label
 _atom_site_symmetry_multiplicity
 _atom_site_fract_x
 _atom_site_fract_y
 _atom_site_fract_z
 _atom_site_occupancy
  Cs0+  Cs0  4  0.25000000  0.25000000  0.75000000  0.25
  Fr0+  Fr1  4  0.25000000  0.25000000  0.75000000
  0.4166666666666667
  Li0+  Li2  4  0.25000000  0.25000000  0.75000000
  0.3333333333333333
  K0+  K3  6  0.00000000  0.00000000  0.50000000  1.0
  Y0+  Y4  2  0.00000000  0.00000000  0.00000000  1.0
  Co0+  Co5  4  0.25000000  0.25000000  0.25000000  1.0
  N0+  N6  24  0.04600000  0.25000000  0.25000000  1.0
  O0+  O7  24  0.00500000  0.14800000  0.75000000  1.0
  O0+  O8  24  0.00500000  0.35200000  0.75000000  1.0
