# generated using pymatgen
data_Mo24At3.5Pb4I48Br4Cl0.5
_symmetry_space_group_name_H-M  'P n -3 :2'
_cell_length_a   14.42900000
_cell_length_b   14.42900000
_cell_length_c   14.42900000
_cell_angle_alpha   90.00000000
_cell_angle_beta   90.00000000
_cell_angle_gamma   90.00000000
_symmetry_Int_Tables_number   201
_chemical_formula_structural   Mo24At3.5Pb4I48Br4Cl0.5
_chemical_formula_sum   'Mo24 At3.5 Pb4 I48 Br4 Cl0.5'
_cell_volume   3004.06067559
_cell_formula_units_Z   1
loop_
 _symmetry_equiv_pos_site_id
 _symmetry_equiv_pos_as_xyz
  1  'x, y, z'
  2  '-x+1/2, -y+1/2, z'
  3  'x, -y+1/2, -z+1/2'
  4  '-x+1/2, y, -z+1/2'
  5  'z, x, y'
  6  'z, -x+1/2, -y+1/2'
  7  '-z+1/2, x, -y+1/2'
  8  '-z+1/2, -x+1/2, y'
  9  'y, z, x'
  10  '-y+1/2, z, -x+1/2'
  11  '-y+1/2, -z+1/2, x'
  12  'y, -z+1/2, -x+1/2'
  13  '-x, -y, -z'
  14  'x+1/2, y+1/2, -z'
  15  '-x, y+1/2, z+1/2'
  16  'x+1/2, -y, z+1/2'
  17  '-z, -x, -y'
  18  '-z, x+1/2, y+1/2'
  19  'z+1/2, -x, y+1/2'
  20  'z+1/2, x+1/2, -y'
  21  '-y, -z, -x'
  22  'y+1/2, -z, x+1/2'
  23  'y+1/2, z+1/2, -x'
  24  '-y, z+1/2, x+1/2'
loop_
 _atom_type_symbol
 _atom_type_oxidation_number
  Mo0+  0.0
  At0+  0.0
  Pb0+  0.0
  I0+  0.0
  Br0+  0.0
  Cl0+  0.0
loop_
 _atom_site_type_symbol
 _atom_site_label
 _atom_site_symmetry_multiplicity
 _atom_site_fract_x
 _atom_site_fract_y
 _atom_site_fract_z
 _atom_site_occupancy
  Mo0+  Mo0  24  0.02620000  0.53330000  0.62390000  1.0
  Pb0+  Pb1  4  0.00000000  0.00000000  0.50000000  1.0
  At0+  At2  8  0.13650000  0.13650000  0.13650000  0.4375
  Cl0+  Cl3  8  0.13650000  0.13650000  0.13650000  0.0625
  Br0+  Br4  8  0.13650000  0.13650000  0.13650000  0.5
  I0+  I5  24  0.06590000  0.62180000  0.31090000  1.0
  I0+  I6  24  0.07160000  0.58760000  0.80890000  1.0
