# generated using pymatgen
data_Y2Al4.33333333Tl5Ga0.33333333Co4B0.33333333N24O48
_symmetry_space_group_name_H-M  'P n -3 :1'
_cell_length_a   10.60000000
_cell_length_b   10.60000000
_cell_length_c   10.60000000
_cell_angle_alpha   90.00000000
_cell_angle_beta   90.00000000
_cell_angle_gamma   90.00000000
_symmetry_Int_Tables_number   201
_chemical_formula_structural
Y2Al4.33333333Tl5Ga0.33333333Co4B0.33333333N24O48
_chemical_formula_sum
'Y2 Al4.33333333 Tl5 Ga0.33333333 Co4 B0.33333333 N24 O48'
_cell_volume   1191.01600000
_cell_formula_units_Z   1
loop_
 _symmetry_equiv_pos_site_id
 _symmetry_equiv_pos_as_xyz
  1  'x, y, z'
  2  '-x, -y, z'
  3  'x, -y, -z'
  4  '-x, y, -z'
  5  'z, x, y'
  6  'z, -x, -y'
  7  '-z, x, -y'
  8  '-z, -x, y'
  9  'y, z, x'
  10  '-y, z, -x'
  11  '-y, -z, x'
  12  'y, -z, -x'
  13  '-x+1/2, -y+1/2, -z+1/2'
  14  'x+1/2, y+1/2, -z+1/2'
  15  '-x+1/2, y+1/2, z+1/2'
  16  'x+1/2, -y+1/2, z+1/2'
  17  '-z+1/2, -x+1/2, -y+1/2'
  18  '-z+1/2, x+1/2, y+1/2'
  19  'z+1/2, -x+1/2, y+1/2'
  20  'z+1/2, x+1/2, -y+1/2'
  21  '-y+1/2, -z+1/2, -x+1/2'
  22  'y+1/2, -z+1/2, x+1/2'
  23  'y+1/2, z+1/2, -x+1/2'
  24  '-y+1/2, z+1/2, x+1/2'
loop_
 _atom_type_symbol
 _atom_type_oxidation_number
  Y0+  0.0
  Al0+  0.0
  Tl0+  0.0
  Ga0+  0.0
  Co0+  0.0
  B0+  0.0
  N0+  0.0
  O0+  0.0
loop_
 _atom_site_type_symbol
 _atom_site_label
 _atom_site_symmetry_multiplicity
 _atom_site_fract_x
 _atom_site_fract_y
 _atom_site_fract_z
 _atom_site_occupancy
  Y0+  Y0  2  0.00000000  0.00000000  0.00000000  1.0
  Tl0+  Tl1  4  0.25000000  0.25000000  0.75000000  1.0
  Al0+  Al2  6  0.00000000  0.00000000  0.50000000
  0.7222222222222222
  Tl0+  Tl3  6  0.00000000  0.00000000  0.50000000
  0.16666666666666666
  Ga0+  Ga4  6  0.00000000  0.00000000  0.50000000
  0.05555555555555555
  B0+  B5  6  0.00000000  0.00000000  0.50000000
  0.05555555555555555
  Co0+  Co6  4  0.25000000  0.25000000  0.25000000  1.0
  N0+  N7  24  0.04600000  0.25000000  0.25000000  1.0
  O0+  O8  24  0.00500000  0.14800000  0.75000000  1.0
  O0+  O9  24  0.00500000  0.35200000  0.75000000  1.0
