# generated using pymatgen
data_Pb4C4Cl2.5Ts0.5Sb0.5As2I8.5Br0.5Mc1N0.5
_symmetry_space_group_name_H-M  'P n m a'
_cell_length_a   8.83620000
_cell_length_b   12.58040000
_cell_length_c   8.55510000
_cell_angle_alpha   90.00000000
_cell_angle_beta   90.00000000
_cell_angle_gamma   90.00000000
_symmetry_Int_Tables_number   62
_chemical_formula_structural
Pb4C4Cl2.5Ts0.5Sb0.5As2I8.5Br0.5Mc1N0.5
_chemical_formula_sum
'Pb4 C4 Cl2.5 Ts0.5 Sb0.5 As2 I8.5 Br0.5 Mc1 N0.5'
_cell_volume   951.00998655
_cell_formula_units_Z   1
loop_
 _symmetry_equiv_pos_site_id
 _symmetry_equiv_pos_as_xyz
  1  'x, y, z'
  2  '-x, -y, -z'
  3  '-x+1/2, -y, z+1/2'
  4  'x+1/2, y, -z+1/2'
  5  'x+1/2, -y+1/2, -z+1/2'
  6  '-x+1/2, y+1/2, z+1/2'
  7  '-x, y+1/2, -z'
  8  'x, -y+1/2, z'
loop_
 _atom_site_type_symbol
 _atom_site_label
 _atom_site_symmetry_multiplicity
 _atom_site_fract_x
 _atom_site_fract_y
 _atom_site_fract_z
 _atom_site_occupancy
  Pb  Pb0  4  0.00000000  0.00000000  0.50000000  1.0
  C  C1  4  0.08700000  0.75000000  0.93900000  1.0
  Cl+  Cl2  4  0.01428000  0.75000000  0.44709000  0.625
  Ts+  Ts3  4  0.01428000  0.75000000  0.44709000  0.125
  I+  I4  4  0.01428000  0.75000000  0.44709000  0.125
  Br+  Br5  4  0.01428000  0.75000000  0.44709000  0.125
  I  I6  8  0.19020000  0.01719000  0.18615000  1.0
  Sb+  Sb7  4  0.06800000  0.25000000  0.97100000  0.125
  Mc+  Mc8  4  0.06800000  0.25000000  0.97100000  0.25
  As+  As9  4  0.06800000  0.25000000  0.97100000  0.5
  N+  N10  4  0.06800000  0.25000000  0.97100000  0.125
