# generated using pymatgen
data_Gd4Fe4Te3.33333333O8.66666667
_symmetry_space_group_name_H-M  'P b n m'
_cell_length_a   5.34900000
_cell_length_b   5.60890000
_cell_length_c   7.66870000
_cell_angle_alpha   90.00000000
_cell_angle_beta   90.00000000
_cell_angle_gamma   90.00000000
_symmetry_Int_Tables_number   62
_chemical_formula_structural   Gd4Fe4Te3.33333333O8.66666667
_chemical_formula_sum   'Gd4 Fe4 Te3.33333333 O8.66666667'
_cell_volume   230.07638418
_cell_formula_units_Z   1
loop_
 _symmetry_equiv_pos_site_id
 _symmetry_equiv_pos_as_xyz
  1  'x, y, z'
  2  '-x, -y, -z'
  3  'x+1/2, -y+1/2, -z'
  4  '-x+1/2, y+1/2, z'
  5  '-x+1/2, y+1/2, -z+1/2'
  6  'x+1/2, -y+1/2, z+1/2'
  7  '-x, -y, z+1/2'
  8  'x, y, -z+1/2'
loop_
 _atom_type_symbol
 _atom_type_oxidation_number
  Gd0+  0.0
  Fe0+  0.0
  Te0+  0.0
  O0+  0.0
loop_
 _atom_site_type_symbol
 _atom_site_label
 _atom_site_symmetry_multiplicity
 _atom_site_fract_x
 _atom_site_fract_y
 _atom_site_fract_z
 _atom_site_occupancy
  Gd0+  Gd0  4  0.01540000  0.93710000  0.75000000  1.0
  Fe0+  Fe1  4  0.00000000  0.50000000  0.00000000  1.0
  Te0+  Te2  4  0.11160000  0.45690000  0.25000000
  0.8333333333333334
  O0+  O3  4  0.11160000  0.45690000  0.25000000
  0.16666666666666666
  O0+  O4  8  0.19600000  0.19790000  0.55210000  1.0
