# generated using pymatgen
data_Th15.5U0.5At3.5I40F4.5
_symmetry_space_group_name_H-M  'C c c m'
_cell_length_a   8.73500000
_cell_length_b   20.29700000
_cell_length_c   14.66100000
_cell_angle_alpha   90.00000000
_cell_angle_beta   90.00000000
_cell_angle_gamma   90.00000000
_symmetry_Int_Tables_number   66
_chemical_formula_structural   Th15.5U0.5At3.5I40F4.5
_chemical_formula_sum   'Th15.5 U0.5 At3.5 I40 F4.5'
_cell_volume   2599.31165900
_cell_formula_units_Z   1
loop_
 _symmetry_equiv_pos_site_id
 _symmetry_equiv_pos_as_xyz
  1  'x, y, z'
  2  '-x, -y, -z'
  3  '-x, -y, z'
  4  'x, y, -z'
  5  'x, -y, -z+1/2'
  6  '-x, y, z+1/2'
  7  '-x, y, -z+1/2'
  8  'x, -y, z+1/2'
  9  'x+1/2, y+1/2, z'
  10  '-x+1/2, -y+1/2, -z'
  11  '-x+1/2, -y+1/2, z'
  12  'x+1/2, y+1/2, -z'
  13  'x+1/2, -y+1/2, -z+1/2'
  14  '-x+1/2, y+1/2, z+1/2'
  15  '-x+1/2, y+1/2, -z+1/2'
  16  'x+1/2, -y+1/2, z+1/2'
loop_
 _atom_type_symbol
 _atom_type_oxidation_number
  Th3+  3.0
  U3+  3.0
  At+  1.0
  I-  -1.0
  F+  1.0
loop_
 _atom_site_type_symbol
 _atom_site_label
 _atom_site_symmetry_multiplicity
 _atom_site_fract_x
 _atom_site_fract_y
 _atom_site_fract_z
 _atom_site_occupancy
  Th3+  Th0  8  0.17300000  0.32840000  0.00000000  1.0
  Th3+  Th1  4  0.00000000  0.50000000  0.00000000  1.0
  Th3+  Th2  4  0.00000000  0.50000000  0.25000000  0.875
  U3+  U3  4  0.00000000  0.50000000  0.25000000  0.125
  I-  I4  16  0.11330000  0.37730000  0.37080000  1.0
  I-  I5  16  0.21060000  0.04900000  0.13020000  1.0
  I-  I6  8  0.25000000  0.25000000  0.18260000  1.0
  F+  F7  8  0.03180000  0.19940000  0.50000000  0.5625
  At+  At8  8  0.03180000  0.19940000  0.50000000  0.4375
