# generated using pymatgen
data_Ba4In8Po4Te10.33333333S1.66666667
_symmetry_space_group_name_H-M  'C c c m'
_cell_length_a   6.74000000
_cell_length_b   11.62100000
_cell_length_c   11.63400000
_cell_angle_alpha   90.00000000
_cell_angle_beta   90.00000000
_cell_angle_gamma   90.00000000
_symmetry_Int_Tables_number   66
_chemical_formula_structural   Ba4In8Po4Te10.33333333S1.66666667
_chemical_formula_sum   'Ba4 In8 Po4 Te10.33333333 S1.66666667'
_cell_volume   911.23933236
_cell_formula_units_Z   1
loop_
 _symmetry_equiv_pos_site_id
 _symmetry_equiv_pos_as_xyz
  1  'x, y, z'
  2  '-x, -y, -z'
  3  '-x, -y, z'
  4  'x, y, -z'
  5  'x, -y, -z+1/2'
  6  '-x, y, z+1/2'
  7  '-x, y, -z+1/2'
  8  'x, -y, z+1/2'
  9  'x+1/2, y+1/2, z'
  10  '-x+1/2, -y+1/2, -z'
  11  '-x+1/2, -y+1/2, z'
  12  'x+1/2, y+1/2, -z'
  13  'x+1/2, -y+1/2, -z+1/2'
  14  '-x+1/2, y+1/2, z+1/2'
  15  '-x+1/2, y+1/2, -z+1/2'
  16  'x+1/2, -y+1/2, z+1/2'
loop_
 _atom_type_symbol
 _atom_type_oxidation_number
  Ba0+  0.0
  In0+  0.0
  Po0+  0.0
  Te0+  0.0
  S0+  0.0
loop_
 _atom_site_type_symbol
 _atom_site_label
 _atom_site_symmetry_multiplicity
 _atom_site_fract_x
 _atom_site_fract_y
 _atom_site_fract_z
 _atom_site_occupancy
  Ba0+  Ba0  4  0.00000000  0.50000000  0.25000000  1.0
  In0+  In1  8  0.00170000  0.23870000  0.50000000  1.0
  Te0+  Te2  8  0.23460000  0.42820000  0.00000000  1.0
  Te0+  Te3  8  0.25000000  0.25000000  0.32160000
  0.2916666666666667
  Po0+  Po4  8  0.25000000  0.25000000  0.32160000  0.5
  S0+  S5  8  0.25000000  0.25000000  0.32160000
  0.20833333333333334
