# generated using pymatgen
data_Na48Fe16Ge25C4Fl3(SO16)8
_symmetry_space_group_name_H-M  'F d -3 :2'
_cell_length_a   13.96200000
_cell_length_b   13.96200000
_cell_length_c   13.96200000
_cell_angle_alpha   90.00000000
_cell_angle_beta   90.00000000
_cell_angle_gamma   90.00000000
_symmetry_Int_Tables_number   203
_chemical_formula_structural   Na48Fe16Ge25C4Fl3(SO16)8
_chemical_formula_sum   'Na48 Fe16 Ge25 C4 Fl3 S8 O128'
_cell_volume   2721.71659313
_cell_formula_units_Z   1
loop_
 _symmetry_equiv_pos_site_id
 _symmetry_equiv_pos_as_xyz
  1  'x, y, z'
  2  '-x+1/4, -y+1/4, z'
  3  'x, -y+3/4, -z+3/4'
  4  '-x+3/4, y, -z+3/4'
  5  'z, x, y'
  6  'z, -x+3/4, -y+3/4'
  7  '-z+3/4, x, -y+3/4'
  8  '-z+1/4, -x+1/4, y'
  9  'y, z, x'
  10  '-y+3/4, z, -x+3/4'
  11  '-y+1/4, -z+1/4, x'
  12  'y, -z+3/4, -x+3/4'
  13  '-x, -y, -z'
  14  'x+1/4, y+1/4, -z'
  15  '-x, y+3/4, z+3/4'
  16  'x+3/4, -y, z+3/4'
  17  '-z, -x, -y'
  18  '-z, x+3/4, y+3/4'
  19  'z+3/4, -x, y+3/4'
  20  'z+1/4, x+1/4, -y'
  21  '-y, -z, -x'
  22  'y+3/4, -z, x+3/4'
  23  'y+1/4, z+1/4, -x'
  24  '-y, z+3/4, x+3/4'
  25  'x+1/2, y+1/2, z'
  26  '-x+3/4, -y+3/4, z'
  27  'x+1/2, -y+1/4, -z+3/4'
  28  '-x+1/4, y+1/2, -z+3/4'
  29  'z+1/2, x+1/2, y'
  30  'z+1/2, -x+1/4, -y+3/4'
  31  '-z+1/4, x+1/2, -y+3/4'
  32  '-z+3/4, -x+3/4, y'
  33  'y+1/2, z+1/2, x'
  34  '-y+1/4, z+1/2, -x+3/4'
  35  '-y+3/4, -z+3/4, x'
  36  'y+1/2, -z+1/4, -x+3/4'
  37  '-x+1/2, -y+1/2, -z'
  38  'x+3/4, y+3/4, -z'
  39  '-x+1/2, y+1/4, z+3/4'
  40  'x+1/4, -y+1/2, z+3/4'
  41  '-z+1/2, -x+1/2, -y'
  42  '-z+1/2, x+1/4, y+3/4'
  43  'z+1/4, -x+1/2, y+3/4'
  44  'z+3/4, x+3/4, -y'
  45  '-y+1/2, -z+1/2, -x'
  46  'y+1/4, -z+1/2, x+3/4'
  47  'y+3/4, z+3/4, -x'
  48  '-y+1/2, z+1/4, x+3/4'
  49  'x+1/2, y, z+1/2'
  50  '-x+3/4, -y+1/4, z+1/2'
  51  'x+1/2, -y+3/4, -z+1/4'
  52  '-x+1/4, y, -z+1/4'
  53  'z+1/2, x, y+1/2'
  54  'z+1/2, -x+3/4, -y+1/4'
  55  '-z+1/4, x, -y+1/4'
  56  '-z+3/4, -x+1/4, y+1/2'
  57  'y+1/2, z, x+1/2'
  58  '-y+1/4, z, -x+1/4'
  59  '-y+3/4, -z+1/4, x+1/2'
  60  'y+1/2, -z+3/4, -x+1/4'
  61  '-x+1/2, -y, -z+1/2'
  62  'x+3/4, y+1/4, -z+1/2'
  63  '-x+1/2, y+3/4, z+1/4'
  64  'x+1/4, -y, z+1/4'
  65  '-z+1/2, -x, -y+1/2'
  66  '-z+1/2, x+3/4, y+1/4'
  67  'z+1/4, -x, y+1/4'
  68  'z+3/4, x+1/4, -y+1/2'
  69  '-y+1/2, -z, -x+1/2'
  70  'y+1/4, -z, x+1/4'
  71  'y+3/4, z+1/4, -x+1/2'
  72  '-y+1/2, z+3/4, x+1/4'
  73  'x, y+1/2, z+1/2'
  74  '-x+1/4, -y+3/4, z+1/2'
  75  'x, -y+1/4, -z+1/4'
  76  '-x+3/4, y+1/2, -z+1/4'
  77  'z, x+1/2, y+1/2'
  78  'z, -x+1/4, -y+1/4'
  79  '-z+3/4, x+1/2, -y+1/4'
  80  '-z+1/4, -x+3/4, y+1/2'
  81  'y, z+1/2, x+1/2'
  82  '-y+3/4, z+1/2, -x+1/4'
  83  '-y+1/4, -z+3/4, x+1/2'
  84  'y, -z+1/4, -x+1/4'
  85  '-x, -y+1/2, -z+1/2'
  86  'x+1/4, y+3/4, -z+1/2'
  87  '-x, y+1/4, z+1/4'
  88  'x+3/4, -y+1/2, z+1/4'
  89  '-z, -x+1/2, -y+1/2'
  90  '-z, x+1/4, y+1/4'
  91  'z+3/4, -x+1/2, y+1/4'
  92  'z+1/4, x+3/4, -y+1/2'
  93  '-y, -z+1/2, -x+1/2'
  94  'y+3/4, -z+1/2, x+1/4'
  95  'y+1/4, z+3/4, -x+1/2'
  96  '-y, z+1/4, x+1/4'
loop_
 _atom_site_type_symbol
 _atom_site_label
 _atom_site_symmetry_multiplicity
 _atom_site_fract_x
 _atom_site_fract_y
 _atom_site_fract_z
 _atom_site_occupancy
  Na  Na0  48  0.09178000  0.37500000  0.37500000  1
  Fe  Fe1  16  0.00000000  0.00000000  0.50000000  1
  Ge+  Ge2  32  0.03077000  0.03077000  0.71923000  0.78125
  C+  C3  32  0.03077000  0.03077000  0.71923000  0.125
  Fl+  Fl4  32  0.03077000  0.03077000  0.71923000  0.09375
  S  S5  8  0.12500000  0.12500000  0.12500000  1
  O  O6  96  0.01721000  0.10078000  0.77767000  1
  O  O7  32  0.06369000  0.06369000  0.06369000  1
