# generated using pymatgen
data_Cu2N4Cl8Lv1.16666667Po2.83333333
_symmetry_space_group_name_H-M  'P 42/m n m'
_cell_length_a   7.59500000
_cell_length_b   7.59500000
_cell_length_c   7.96500000
_cell_angle_alpha   90.00000000
_cell_angle_beta   90.00000000
_cell_angle_gamma   90.00000000
_symmetry_Int_Tables_number   136
_chemical_formula_structural   Cu2N4Cl8Lv1.16666667Po2.83333333
_chemical_formula_sum   'Cu2 N4 Cl8 Lv1.16666667 Po2.83333333'
_cell_volume   459.45325912
_cell_formula_units_Z   1
loop_
 _symmetry_equiv_pos_site_id
 _symmetry_equiv_pos_as_xyz
  1  'x, y, z'
  2  '-x, -y, -z'
  3  '-y+1/2, x+1/2, z+1/2'
  4  'y+1/2, -x+1/2, -z+1/2'
  5  '-x, -y, z'
  6  'x, y, -z'
  7  'y+1/2, -x+1/2, z+1/2'
  8  '-y+1/2, x+1/2, -z+1/2'
  9  'x+1/2, -y+1/2, -z+1/2'
  10  '-x+1/2, y+1/2, z+1/2'
  11  '-y, -x, -z'
  12  'y, x, z'
  13  '-x+1/2, y+1/2, -z+1/2'
  14  'x+1/2, -y+1/2, z+1/2'
  15  'y, x, -z'
  16  '-y, -x, z'
loop_
 _atom_site_type_symbol
 _atom_site_label
 _atom_site_symmetry_multiplicity
 _atom_site_fract_x
 _atom_site_fract_y
 _atom_site_fract_z
 _atom_site_occupancy
  Cu  Cu0  2  0.00000000  0.00000000  0.00000000  1
  N  N1  4  0.00000000  0.50000000  0.25000000  1
  Cl  Cl2  4  0.21700000  0.21700000  0.00000000  1
  Cl  Cl3  4  0.22100000  0.22100000  0.50000000  1
  Lv+  Lv4  4  0.00000000  0.00000000  0.26000000
  0.2916666666666667
  Po+  Po5  4  0.00000000  0.00000000  0.26000000
  0.7083333333333334
