# generated using pymatgen
data_Co1.5Po0.5Sb4Rh0.5Se1.5S1O8Lv1
_symmetry_space_group_name_H-M  'P 42/m n m'
_cell_length_a   4.64950000
_cell_length_b   4.64950000
_cell_length_c   9.27630000
_cell_angle_alpha   90.00000000
_cell_angle_beta   90.00000000
_cell_angle_gamma   90.00000000
_symmetry_Int_Tables_number   136
_chemical_formula_structural   Co1.5Po0.5Sb4Rh0.5Se1.5S1O8Lv1
_chemical_formula_sum   'Co1.5 Po0.5 Sb4 Rh0.5 Se1.5 S1 O8 Lv1'
_cell_volume   200.53366427
_cell_formula_units_Z   1
loop_
 _symmetry_equiv_pos_site_id
 _symmetry_equiv_pos_as_xyz
  1  'x, y, z'
  2  '-x, -y, -z'
  3  '-y+1/2, x+1/2, z+1/2'
  4  'y+1/2, -x+1/2, -z+1/2'
  5  '-x, -y, z'
  6  'x, y, -z'
  7  'y+1/2, -x+1/2, z+1/2'
  8  '-y+1/2, x+1/2, -z+1/2'
  9  'x+1/2, -y+1/2, -z+1/2'
  10  '-x+1/2, y+1/2, z+1/2'
  11  '-y, -x, -z'
  12  'y, x, z'
  13  '-x+1/2, y+1/2, -z+1/2'
  14  'x+1/2, -y+1/2, z+1/2'
  15  'y, x, -z'
  16  '-y, -x, z'
loop_
 _atom_type_symbol
 _atom_type_oxidation_number
  Co0+  0.0
  Po0+  0.0
  Sb0+  0.0
  Rh0+  0.0
  Se0+  0.0
  S0+  0.0
  O0+  0.0
  Lv0+  0.0
loop_
 _atom_site_type_symbol
 _atom_site_label
 _atom_site_symmetry_multiplicity
 _atom_site_fract_x
 _atom_site_fract_y
 _atom_site_fract_z
 _atom_site_occupancy
  Co0+  Co0  2  0.00000000  0.00000000  0.00000000  0.75
  Rh0+  Rh1  2  0.00000000  0.00000000  0.00000000  0.25
  Sb0+  Sb2  4  0.00000000  0.00000000  0.33580000  1.0
  O0+  O3  8  0.19740000  0.80260000  0.17360000  1.0
  S0+  S4  4  0.19180000  0.80820000  0.50000000  0.25
  Lv0+  Lv5  4  0.19180000  0.80820000  0.50000000  0.25
  Po0+  Po6  4  0.19180000  0.80820000  0.50000000  0.125
  Se0+  Se7  4  0.19180000  0.80820000  0.50000000  0.375
