# generated using pymatgen
data_Gd8Fe52Ru1.5Os1.5Hs1B4
_symmetry_space_group_name_H-M  'P 42/m n m'
_cell_length_a   8.78300000
_cell_length_b   8.78300000
_cell_length_c   12.05300000
_cell_angle_alpha   90.00000000
_cell_angle_beta   90.00000000
_cell_angle_gamma   90.00000000
_symmetry_Int_Tables_number   136
_chemical_formula_structural   Gd8Fe52Ru1.5Os1.5Hs1B4
_chemical_formula_sum   'Gd8 Fe52 Ru1.5 Os1.5 Hs1 B4'
_cell_volume   929.78154572
_cell_formula_units_Z   1
loop_
 _symmetry_equiv_pos_site_id
 _symmetry_equiv_pos_as_xyz
  1  'x, y, z'
  2  '-x, -y, -z'
  3  '-y+1/2, x+1/2, z+1/2'
  4  'y+1/2, -x+1/2, -z+1/2'
  5  '-x, -y, z'
  6  'x, y, -z'
  7  'y+1/2, -x+1/2, z+1/2'
  8  '-y+1/2, x+1/2, -z+1/2'
  9  'x+1/2, -y+1/2, -z+1/2'
  10  '-x+1/2, y+1/2, z+1/2'
  11  '-y, -x, -z'
  12  'y, x, z'
  13  '-x+1/2, y+1/2, -z+1/2'
  14  'x+1/2, -y+1/2, z+1/2'
  15  'y, x, -z'
  16  '-y, -x, z'
loop_
 _atom_site_type_symbol
 _atom_site_label
 _atom_site_symmetry_multiplicity
 _atom_site_fract_x
 _atom_site_fract_y
 _atom_site_fract_z
 _atom_site_occupancy
  Gd  Gd0  4  0.14310000  0.14310000  0.00000000  1.0
  Gd  Gd1  4  0.23200000  0.23200000  0.50000000  1.0
  Fe  Fe2  16  0.03690000  0.64030000  0.82480000  1.0
  Fe  Fe3  16  0.06670000  0.72480000  0.37290000  1.0
  Fe  Fe4  8  0.09790000  0.90210000  0.20140000  1.0
  Fe  Fe5  4  0.00000000  0.00000000  0.38500000  1.0
  Fe  Fe6  4  0.00000000  0.50000000  0.00000000  1.0
  Fe+  Fe7  8  0.18300000  0.18300000  0.25440000  0.5
  Ru+  Ru8  8  0.18300000  0.18300000  0.25440000  0.1875
  Os+  Os9  8  0.18300000  0.18300000  0.25440000  0.1875
  Hs+  Hs10  8  0.18300000  0.18300000  0.25440000  0.125
  B  B11  4  0.12520000  0.87480000  0.50000000  1.0
