# generated using pymatgen
data_Cu1.5Ag0.08333333Au0.41666667S3.83333333O0.16666667
_symmetry_space_group_name_H-M  'P n n m'
_cell_length_a   5.00500000
_cell_length_b   6.18200000
_cell_length_c   3.74000000
_cell_angle_alpha   90.00000000
_cell_angle_beta   90.00000000
_cell_angle_gamma   90.00000000
_symmetry_Int_Tables_number   58
_chemical_formula_structural
Cu1.5Ag0.08333333Au0.41666667S3.83333333O0.16666667
_chemical_formula_sum
'Cu1.5 Ag0.08333333 Au0.41666667 S3.83333333 O0.16666667'
_cell_volume   115.71900340
_cell_formula_units_Z   1
loop_
 _symmetry_equiv_pos_site_id
 _symmetry_equiv_pos_as_xyz
  1  'x, y, z'
  2  '-x, -y, -z'
  3  '-x, -y, z'
  4  'x, y, -z'
  5  'x+1/2, -y+1/2, -z+1/2'
  6  '-x+1/2, y+1/2, z+1/2'
  7  '-x+1/2, y+1/2, -z+1/2'
  8  'x+1/2, -y+1/2, z+1/2'
loop_
 _atom_type_symbol
 _atom_type_oxidation_number
  Cu+  1.0
  Ag+  1.0
  Au+  1.0
  S+  1.0
  O+  1.0
loop_
 _atom_site_type_symbol
 _atom_site_label
 _atom_site_symmetry_multiplicity
 _atom_site_fract_x
 _atom_site_fract_y
 _atom_site_fract_z
 _atom_site_occupancy
  Au+  Au0  2  0.00000000  0.00000000  0.00000000
  0.20833333333333334
  Ag+  Ag1  2  0.00000000  0.00000000  0.00000000
  0.041666666666666664
  Cu+  Cu2  2  0.00000000  0.00000000  0.00000000  0.75
  S+  S3  4  0.18400000  0.38500000  0.00000000  0.9583333333333334
  O+  O4  4  0.18400000  0.38500000  0.00000000
  0.041666666666666664
