# generated using pymatgen
data_Cs0.5Rb2K2Na1.5Au0.5Rg0.5Cu0.5Ag0.5O4
_symmetry_space_group_name_H-M  'P n n m'
_cell_length_a   9.92760000
_cell_length_b   5.59030000
_cell_length_c   4.08640000
_cell_angle_alpha   90.00000000
_cell_angle_beta   90.00000000
_cell_angle_gamma   90.00000000
_symmetry_Int_Tables_number   58
_chemical_formula_structural   Cs0.5Rb2K2Na1.5Au0.5Rg0.5Cu0.5Ag0.5O4
_chemical_formula_sum
'Cs0.5 Rb2 K2 Na1.5 Au0.5 Rg0.5 Cu0.5 Ag0.5 O4'
_cell_volume   226.78809898
_cell_formula_units_Z   1
loop_
 _symmetry_equiv_pos_site_id
 _symmetry_equiv_pos_as_xyz
  1  'x, y, z'
  2  '-x, -y, -z'
  3  '-x, -y, z'
  4  'x, y, -z'
  5  '-x+1/2, y+1/2, -z+1/2'
  6  'x+1/2, -y+1/2, z+1/2'
  7  'x+1/2, -y+1/2, -z+1/2'
  8  '-x+1/2, y+1/2, z+1/2'
loop_
 _atom_type_symbol
 _atom_type_oxidation_number
  Cs0+  0.0
  K0+  0.0
  Rb0+  0.0
  Na0+  0.0
  Cu0+  0.0
  Ag0+  0.0
  Au0+  0.0
  O0+  0.0
  Rg0+  0.0
loop_
 _atom_site_type_symbol
 _atom_site_label
 _atom_site_symmetry_multiplicity
 _atom_site_fract_x
 _atom_site_fract_y
 _atom_site_fract_z
 _atom_site_occupancy
  Rb0+  Rb0  2  0.00000000  0.50000000  0.50000000  1.0
  Na0+  Na1  4  0.23000000  0.07890000  0.50000000  0.375
  Cs0+  Cs2  4  0.23000000  0.07890000  0.50000000  0.125
  K0+  K3  4  0.23000000  0.07890000  0.50000000  0.5
  Au0+  Au4  2  0.00000000  0.00000000  0.00000000  0.25
  Rg0+  Rg5  2  0.00000000  0.00000000  0.00000000  0.25
  Ag0+  Ag6  2  0.00000000  0.00000000  0.00000000  0.25
  Cu0+  Cu7  2  0.00000000  0.00000000  0.00000000  0.25
  O0+  O8  4  0.15630000  0.22550000  0.00000000  1.0
