# generated using pymatgen
data_K16Al11B5H144(C3F)16
_symmetry_space_group_name_H-M  'F -4 3 c'
_cell_length_a   17.76000000
_cell_length_b   17.76000000
_cell_length_c   17.76000000
_cell_angle_alpha   90.00000000
_cell_angle_beta   90.00000000
_cell_angle_gamma   90.00000000
_symmetry_Int_Tables_number   219
_chemical_formula_structural   K16Al11B5H144(C3F)16
_chemical_formula_sum   'K32 Al22 B10 H288 C96 F32'
_cell_volume   5601.81657600
_cell_formula_units_Z   2
loop_
 _symmetry_equiv_pos_site_id
 _symmetry_equiv_pos_as_xyz
  1  'x, y, z'
  2  'y+1/2, -x, -z'
  3  '-x, -y, z'
  4  '-y+1/2, x, -z'
  5  'x, -y, -z'
  6  'y+1/2, x, z'
  7  '-x, y, -z'
  8  '-y+1/2, -x, z'
  9  'z, x, y'
  10  '-z+1/2, y, -x'
  11  'z, -x, -y'
  12  '-z+1/2, -y, x'
  13  '-z, x, -y'
  14  'z+1/2, y, x'
  15  '-z, -x, y'
  16  'z+1/2, -y, -x'
  17  'y, z, x'
  18  '-x+1/2, -z, y'
  19  '-y, z, -x'
  20  'x+1/2, -z, -y'
  21  '-y, -z, x'
  22  'x+1/2, z, y'
  23  'y, -z, -x'
  24  '-x+1/2, z, -y'
  25  'x+1/2, y+1/2, z'
  26  'y, -x+1/2, -z'
  27  '-x+1/2, -y+1/2, z'
  28  '-y, x+1/2, -z'
  29  'x+1/2, -y+1/2, -z'
  30  'y, x+1/2, z'
  31  '-x+1/2, y+1/2, -z'
  32  '-y, -x+1/2, z'
  33  'z+1/2, x+1/2, y'
  34  '-z, y+1/2, -x'
  35  'z+1/2, -x+1/2, -y'
  36  '-z, -y+1/2, x'
  37  '-z+1/2, x+1/2, -y'
  38  'z, y+1/2, x'
  39  '-z+1/2, -x+1/2, y'
  40  'z, -y+1/2, -x'
  41  'y+1/2, z+1/2, x'
  42  '-x, -z+1/2, y'
  43  '-y+1/2, z+1/2, -x'
  44  'x, -z+1/2, -y'
  45  '-y+1/2, -z+1/2, x'
  46  'x, z+1/2, y'
  47  'y+1/2, -z+1/2, -x'
  48  '-x, z+1/2, -y'
  49  'x+1/2, y, z+1/2'
  50  'y, -x, -z+1/2'
  51  '-x+1/2, -y, z+1/2'
  52  '-y, x, -z+1/2'
  53  'x+1/2, -y, -z+1/2'
  54  'y, x, z+1/2'
  55  '-x+1/2, y, -z+1/2'
  56  '-y, -x, z+1/2'
  57  'z+1/2, x, y+1/2'
  58  '-z, y, -x+1/2'
  59  'z+1/2, -x, -y+1/2'
  60  '-z, -y, x+1/2'
  61  '-z+1/2, x, -y+1/2'
  62  'z, y, x+1/2'
  63  '-z+1/2, -x, y+1/2'
  64  'z, -y, -x+1/2'
  65  'y+1/2, z, x+1/2'
  66  '-x, -z, y+1/2'
  67  '-y+1/2, z, -x+1/2'
  68  'x, -z, -y+1/2'
  69  '-y+1/2, -z, x+1/2'
  70  'x, z, y+1/2'
  71  'y+1/2, -z, -x+1/2'
  72  '-x, z, -y+1/2'
  73  'x, y+1/2, z+1/2'
  74  'y+1/2, -x+1/2, -z+1/2'
  75  '-x, -y+1/2, z+1/2'
  76  '-y+1/2, x+1/2, -z+1/2'
  77  'x, -y+1/2, -z+1/2'
  78  'y+1/2, x+1/2, z+1/2'
  79  '-x, y+1/2, -z+1/2'
  80  '-y+1/2, -x+1/2, z+1/2'
  81  'z, x+1/2, y+1/2'
  82  '-z+1/2, y+1/2, -x+1/2'
  83  'z, -x+1/2, -y+1/2'
  84  '-z+1/2, -y+1/2, x+1/2'
  85  '-z, x+1/2, -y+1/2'
  86  'z+1/2, y+1/2, x+1/2'
  87  '-z, -x+1/2, y+1/2'
  88  'z+1/2, -y+1/2, -x+1/2'
  89  'y, z+1/2, x+1/2'
  90  '-x+1/2, -z+1/2, y+1/2'
  91  '-y, z+1/2, -x+1/2'
  92  'x+1/2, -z+1/2, -y+1/2'
  93  '-y, -z+1/2, x+1/2'
  94  'x+1/2, z+1/2, y+1/2'
  95  'y, -z+1/2, -x+1/2'
  96  '-x+1/2, z+1/2, -y+1/2'
loop_
 _atom_site_type_symbol
 _atom_site_label
 _atom_site_symmetry_multiplicity
 _atom_site_fract_x
 _atom_site_fract_y
 _atom_site_fract_z
 _atom_site_occupancy
  K  K0  32  0.07967000  0.07967000  0.42033000  1.0
  B+  B1  32  0.13222800  0.13222800  0.13222800  0.3125
  Al+  Al2  32  0.13222800  0.13222800  0.13222800  0.6875
  H  H3  96  0.03630000  0.15990000  0.22930000  1.0
  H  H4  96  0.06720000  0.07840000  0.24300000  1.0
  H  H5  96  0.11410000  0.14840000  0.26930000  1.0
  C  C6  96  0.08083000  0.12937000  0.23121000  1.0
  F  F7  32  0.06874000  0.06874000  0.06874000  1.0
