# generated using pymatgen
data_Al3Ga29Ni24Po2B24I8Lv5O97
_symmetry_space_group_name_H-M  'F -4 3 c'
_cell_length_a   12.04400000
_cell_length_b   12.04400000
_cell_length_c   12.04400000
_cell_angle_alpha   90.00000000
_cell_angle_beta   90.00000000
_cell_angle_gamma   90.00000000
_symmetry_Int_Tables_number   219
_chemical_formula_structural   Al3Ga29Ni24Po2B24I8Lv5O97
_chemical_formula_sum   'Al3 Ga29 Ni24 Po2 B24 I8 Lv5 O97'
_cell_volume   1747.07778118
_cell_formula_units_Z   1
loop_
 _symmetry_equiv_pos_site_id
 _symmetry_equiv_pos_as_xyz
  1  'x, y, z'
  2  'y+1/2, -x, -z'
  3  '-x, -y, z'
  4  '-y+1/2, x, -z'
  5  'x, -y, -z'
  6  'y+1/2, x, z'
  7  '-x, y, -z'
  8  '-y+1/2, -x, z'
  9  'z, x, y'
  10  '-z+1/2, y, -x'
  11  'z, -x, -y'
  12  '-z+1/2, -y, x'
  13  '-z, x, -y'
  14  'z+1/2, y, x'
  15  '-z, -x, y'
  16  'z+1/2, -y, -x'
  17  'y, z, x'
  18  '-x+1/2, -z, y'
  19  '-y, z, -x'
  20  'x+1/2, -z, -y'
  21  '-y, -z, x'
  22  'x+1/2, z, y'
  23  'y, -z, -x'
  24  '-x+1/2, z, -y'
  25  'x+1/2, y, z+1/2'
  26  'y, -x, -z+1/2'
  27  '-x+1/2, -y, z+1/2'
  28  '-y, x, -z+1/2'
  29  'x+1/2, -y, -z+1/2'
  30  'y, x, z+1/2'
  31  '-x+1/2, y, -z+1/2'
  32  '-y, -x, z+1/2'
  33  'z+1/2, x, y+1/2'
  34  '-z, y, -x+1/2'
  35  'z+1/2, -x, -y+1/2'
  36  '-z, -y, x+1/2'
  37  '-z+1/2, x, -y+1/2'
  38  'z, y, x+1/2'
  39  '-z+1/2, -x, y+1/2'
  40  'z, -y, -x+1/2'
  41  'y+1/2, z, x+1/2'
  42  '-x, -z, y+1/2'
  43  '-y+1/2, z, -x+1/2'
  44  'x, -z, -y+1/2'
  45  '-y+1/2, -z, x+1/2'
  46  'x, z, y+1/2'
  47  'y+1/2, -z, -x+1/2'
  48  '-x, z, -y+1/2'
  49  'x+1/2, y+1/2, z'
  50  'y, -x+1/2, -z'
  51  '-x+1/2, -y+1/2, z'
  52  '-y, x+1/2, -z'
  53  'x+1/2, -y+1/2, -z'
  54  'y, x+1/2, z'
  55  '-x+1/2, y+1/2, -z'
  56  '-y, -x+1/2, z'
  57  'z+1/2, x+1/2, y'
  58  '-z, y+1/2, -x'
  59  'z+1/2, -x+1/2, -y'
  60  '-z, -y+1/2, x'
  61  '-z+1/2, x+1/2, -y'
  62  'z, y+1/2, x'
  63  '-z+1/2, -x+1/2, y'
  64  'z, -y+1/2, -x'
  65  'y+1/2, z+1/2, x'
  66  '-x, -z+1/2, y'
  67  '-y+1/2, z+1/2, -x'
  68  'x, -z+1/2, -y'
  69  '-y+1/2, -z+1/2, x'
  70  'x, z+1/2, y'
  71  'y+1/2, -z+1/2, -x'
  72  '-x, z+1/2, -y'
  73  'x, y+1/2, z+1/2'
  74  'y+1/2, -x+1/2, -z+1/2'
  75  '-x, -y+1/2, z+1/2'
  76  '-y+1/2, x+1/2, -z+1/2'
  77  'x, -y+1/2, -z+1/2'
  78  'y+1/2, x+1/2, z+1/2'
  79  '-x, y+1/2, -z+1/2'
  80  '-y+1/2, -x+1/2, z+1/2'
  81  'z, x+1/2, y+1/2'
  82  '-z+1/2, y+1/2, -x+1/2'
  83  'z, -x+1/2, -y+1/2'
  84  '-z+1/2, -y+1/2, x+1/2'
  85  '-z, x+1/2, -y+1/2'
  86  'z+1/2, y+1/2, x+1/2'
  87  '-z, -x+1/2, y+1/2'
  88  'z+1/2, -y+1/2, -x+1/2'
  89  'y, z+1/2, x+1/2'
  90  '-x+1/2, -z+1/2, y+1/2'
  91  '-y, z+1/2, -x+1/2'
  92  'x+1/2, -z+1/2, -y+1/2'
  93  '-y, -z+1/2, x+1/2'
  94  'x+1/2, z+1/2, y+1/2'
  95  'y, -z+1/2, -x+1/2'
  96  '-x+1/2, z+1/2, -y+1/2'
loop_
 _atom_type_symbol
 _atom_type_oxidation_number
  Al0+  0.0
  Ga0+  0.0
  Ni0+  0.0
  Po0+  0.0
  B0+  0.0
  I0+  0.0
  O0+  0.0
  Lv0+  0.0
loop_
 _atom_site_type_symbol
 _atom_site_label
 _atom_site_symmetry_multiplicity
 _atom_site_fract_x
 _atom_site_fract_y
 _atom_site_fract_z
 _atom_site_occupancy
  Al0+  Al0  32  0.08000000  0.08000000  0.08000000  0.09375
  Ga0+  Ga1  32  0.08000000  0.08000000  0.08000000  0.90625
  Ni0+  Ni2  24  0.00000000  0.25000000  0.25000000  1.0
  B0+  B3  24  0.00000000  0.00000000  0.25000000  1.0
  I0+  I4  8  0.25000000  0.25000000  0.25000000  1.0
  Lv0+  Lv5  8  0.00000000  0.00000000  0.00000000  0.625
  O0+  O6  8  0.00000000  0.00000000  0.00000000  0.125
  Po0+  Po7  8  0.00000000  0.00000000  0.00000000  0.25
  O0+  O8  96  0.01800000  0.09800000  0.18000000  1.0
