# generated using pymatgen
data_Fr0.33333333Cs1Rb0.66666667K0.33333333Li1H26.66666667Pb0.33333333C25Fl0.66
_symmetry_space_group_name_H-M  'P 1 21 1'
_cell_length_a   6.53690000
_cell_length_b   7.00710000
_cell_length_c   12.21870000
_cell_angle_alpha   90.00000000
_cell_angle_beta   100.72000000
_cell_angle_gamma   90.00000000
_symmetry_Int_Tables_number   4
_chemical_formula_structural
;
Fr0.33333333Cs1Rb0.66666667K0.33333333Li1H26.66666667Pb0.33333333C25Fl
0.66666667N2O2
;
_chemical_formula_sum
;
Fr0.33333333 Cs1 Rb0.66666667 K0.33333333 Li1 H26.66666667
Pb0.33333333 C25 Fl0.66666667 N2 O2
;
_cell_volume   549.90656218
_cell_formula_units_Z   1
loop_
 _symmetry_equiv_pos_site_id
 _symmetry_equiv_pos_as_xyz
  1  'x, y, z'
  2  '-x, y+1/2, -z'
loop_
 _atom_site_type_symbol
 _atom_site_label
 _atom_site_symmetry_multiplicity
 _atom_site_fract_x
 _atom_site_fract_y
 _atom_site_fract_z
 _atom_site_occupancy
  Rb+  Rb0  2  0.01900000  0.93600000  0.04110000
  0.3333333333333333
  K+  K1  2  0.01900000  0.93600000  0.04110000  0.16666666666666666
  Li+  Li2  2  0.01900000  0.93600000  0.04110000
  0.3333333333333333
  Fr+  Fr3  2  0.01900000  0.93600000  0.04110000
  0.16666666666666666
  Cs+  Cs4  2  0.00240000  0.17380000  0.21100000  0.5
  Li+  Li5  2  0.00240000  0.17380000  0.21100000
  0.16666666666666666
  H+  H6  2  0.00240000  0.17380000  0.21100000  0.3333333333333333
  H  H7  2  0.04060000  0.22360000  0.80280000  1.0
  H  H8  2  0.04230000  0.59130000  0.40760000  1.0
  H  H9  2  0.08150000  0.14250000  0.42650000  1.0
  H  H10  2  0.15430000  0.59030000  0.00810000  1.0
  H  H11  2  0.20150000  0.36750000  0.02750000  1.0
  H  H12  2  0.24910000  0.24650000  0.75300000  1.0
  H  H13  2  0.26030000  0.16390000  0.87610000  1.0
  H  H14  2  0.28650000  0.80580000  0.92300000  1.0
  H  H15  2  0.33100000  0.08660000  0.21130000  1.0
  H  H16  2  0.38940000  0.83150000  0.81170000  1.0
  H  H17  2  0.40860000  0.86980000  0.21000000  1.0
  H  H18  2  0.42790000  0.97550000  0.60670000  1.0
  H  H19  2  0.47620000  0.03950000  0.04310000  1.0
  C  C20  2  0.06010000  0.60930000  0.57552000  1.0
  C  C21  2  0.13070000  0.46290000  0.97508000  1.0
  C  C22  2  0.13260000  0.57940000  0.47776000  1.0
  C  C23  2  0.14140000  0.62580000  0.78834000  1.0
  C  C24  2  0.18930000  0.25460000  0.82072000  1.0
  C  C25  2  0.19460000  0.59080000  0.67601000  1.0
  C  C26  2  0.21680000  0.45480000  0.86737000  1.0
  C  C27  2  0.33860000  0.53200000  0.48429000  1.0
  C  C28  2  0.40100000  0.53550000  0.67449000  1.0
  C  C29  2  0.42710000  0.50090000  0.38332000  1.0
  C  C30  2  0.43520000  0.55090000  0.88114000  1.0
  C  C31  2  0.45550000  0.00440000  0.21563000  1.0
  Pb+  Pb32  2  0.32160000  0.74210000  0.85660000
  0.16666666666666666
  Fl+  Fl33  2  0.32160000  0.74210000  0.85660000
  0.3333333333333333
  C+  C34  2  0.32160000  0.74210000  0.85660000  0.5
  N  N35  2  0.47270000  0.50840000  0.58104000  1.0
  O  O36  2  0.33090000  0.50500000  0.28930000  1.0
