# generated using pymatgen
data_Li0.33333333Mn2Si0.33333333Sn0.33333333H17.66666667At1C7Fl0.33333333I0.333
_symmetry_space_group_name_H-M  'P 1 21 1'
_cell_length_a   7.62200000
_cell_length_b   6.48800000
_cell_length_c   9.59480000
_cell_angle_alpha   90.00000000
_cell_angle_beta   112.47400000
_cell_angle_gamma   90.00000000
_symmetry_Int_Tables_number   4
_chemical_formula_structural
;
Li0.33333333Mn2Si0.33333333Sn0.33333333H17.66666667At1C7Fl0.33333333I0
.33333333N2Cl4.33333333Ts0.33333333F2
;
_chemical_formula_sum
;
Li0.33333333 Mn2 Si0.33333333 Sn0.33333333 H17.66666667 At1 C7
Fl0.33333333 I0.33333333 N2 Cl4.33333333 Ts0.33333333 F2
;
_cell_volume   438.44249193
_cell_formula_units_Z   1
loop_
 _symmetry_equiv_pos_site_id
 _symmetry_equiv_pos_as_xyz
  1  'x, y, z'
  2  '-x, y+1/2, -z'
loop_
 _atom_site_type_symbol
 _atom_site_label
 _atom_site_symmetry_multiplicity
 _atom_site_fract_x
 _atom_site_fract_y
 _atom_site_fract_z
 _atom_site_occupancy
  Mn  Mn0  2  0.00103000  0.99891000  0.00280000  1.0
  H+  H1  2  0.27430000  0.51260000  0.52150000  0.8333333333333334
  Li+  Li2  2  0.27430000  0.51260000  0.52150000
  0.16666666666666666
  H  H3  2  0.11110000  0.61720000  0.55990000  1.0
  H  H4  2  0.17080000  0.87450000  0.42760000  1.0
  H  H5  2  0.21710000  0.04660000  0.63510000  1.0
  H  H6  2  0.30980000  0.56660000  0.79710000  1.0
  H  H7  2  0.34740000  0.88840000  0.83580000  1.0
  H  H8  2  0.42310000  0.07070000  0.63560000  1.0
  H  H9  2  0.47250000  0.37570000  0.18040000  1.0
  H  H10  2  0.48930000  0.56130000  0.75330000  1.0
  C  C11  2  0.24330000  0.62750000  0.57260000  1.0
  C  C12  2  0.28180000  0.82750000  0.51410000  1.0
  C  C13  2  0.32930000  0.97210000  0.63930000  1.0
  C+  C14  2  0.37060000  0.63180000  0.73640000  0.5
  Fl+  Fl15  2  0.37060000  0.63180000  0.73640000
  0.16666666666666666
  Sn+  Sn16  2  0.37060000  0.63180000  0.73640000
  0.16666666666666666
  Si+  Si17  2  0.37060000  0.63180000  0.73640000
  0.16666666666666666
  N  N18  2  0.40360000  0.85230000  0.77340000  1.0
  Cl  Cl19  2  0.12187000  0.25320000  0.22418000  1.0
  Cl  Cl20  2  0.16442000  0.24530000  0.88597000  1.0
  Ts+  Ts21  2  0.27971000  0.74720000  0.09004000
  0.16666666666666666
  Cl+  Cl22  2  0.27971000  0.74720000  0.09004000
  0.16666666666666666
  I+  I23  2  0.27971000  0.74720000  0.09004000
  0.16666666666666666
  At+  At24  2  0.27971000  0.74720000  0.09004000  0.5
  F  F25  2  0.42530000  0.79940000  0.47690000  1.0
