# generated using pymatgen
data_Fr0.33333333Cs0.33333333Li0.16666667Si0.66666667H21.16666667Pb1.33333333C2
_symmetry_space_group_name_H-M  'P 1 21 1'
_cell_length_a   8.30800000
_cell_length_b   5.46730000
_cell_length_c   12.05700000
_cell_angle_alpha   90.00000000
_cell_angle_beta   97.81400000
_cell_angle_gamma   90.00000000
_symmetry_Int_Tables_number   4
_chemical_formula_structural
;
Fr0.33333333Cs0.33333333Li0.16666667Si0.66666667H21.16666667Pb1.333333
33C24N2O2
;
_chemical_formula_sum
;
Fr0.33333333 Cs0.33333333 Li0.16666667 Si0.66666667 H21.16666667
Pb1.33333333 C24 N2 O2
;
_cell_volume   542.57182610
_cell_formula_units_Z   1
loop_
 _symmetry_equiv_pos_site_id
 _symmetry_equiv_pos_as_xyz
  1  'x, y, z'
  2  '-x, y+1/2, -z'
loop_
 _atom_site_type_symbol
 _atom_site_label
 _atom_site_symmetry_multiplicity
 _atom_site_fract_x
 _atom_site_fract_y
 _atom_site_fract_z
 _atom_site_occupancy
  H+  H0  2  0.02480000  0.43500000  0.40150000  0.5833333333333334
  Fr+  Fr1  2  0.02480000  0.43500000  0.40150000
  0.16666666666666666
  Cs+  Cs2  2  0.02480000  0.43500000  0.40150000
  0.16666666666666666
  Li+  Li3  2  0.02480000  0.43500000  0.40150000
  0.08333333333333333
  Si+  Si4  2  0.33160000  0.06770000  0.07800000
  0.3333333333333333
  Pb+  Pb5  2  0.33160000  0.06770000  0.07800000
  0.6666666666666666
  H  H6  2  0.03660000  0.15370000  0.54360000  1.0
  H  H7  2  0.05500000  0.54510000  0.10570000  1.0
  H  H8  2  0.12680000  0.80610000  0.25600000  1.0
  H  H9  2  0.14430000  0.64860000  0.69600000  1.0
  H  H10  2  0.15620000  0.61090000  0.93810000  1.0
  H  H11  2  0.32700000  0.20820000  0.53670000  1.0
  H  H12  2  0.32910000  0.93770000  0.92080000  1.0
  H  H13  2  0.40090000  0.19870000  0.07110000  1.0
  H  H14  2  0.40570000  0.52210000  0.76420000  1.0
  H  H15  2  0.41160000  0.58180000  0.39510000  1.0
  C  C16  2  0.12430000  0.67610000  0.09880000  1.0
  C  C17  2  0.16730000  0.83250000  0.18880000  1.0
  C  C18  2  0.18490000  0.71560000  0.99830000  1.0
  C  C19  2  0.20980000  0.94100000  0.60960000  1.0
  C  C20  2  0.23330000  0.73540000  0.67770000  1.0
  C  C21  2  0.27100000  0.02830000  0.17840000  1.0
  C  C22  2  0.28860000  0.91100000  0.98800000  1.0
  C  C23  2  0.31170000  0.19500000  0.26600000  1.0
  C  C24  2  0.34280000  0.07070000  0.58230000  1.0
  C  C25  2  0.38990000  0.65970000  0.71860000  1.0
  C  C26  2  0.47710000  0.28940000  0.30870000  1.0
  C  C27  2  0.49940000  0.99490000  0.62310000  1.0
  N  N28  2  0.05500000  0.01900000  0.58000000  1.0
  O  O29  2  0.19870000  0.26520000  0.32500000  1.0
