# generated using pymatgen
data_K0.5Na3.5Ti2Rg1.5Cu0.5Ag1.5Au0.5Se8
_symmetry_space_group_name_H-M  'P 42/m c m'
_cell_length_a   5.85200000
_cell_length_b   5.85200000
_cell_length_c   14.23400000
_cell_angle_alpha   90.00000000
_cell_angle_beta   90.00000000
_cell_angle_gamma   90.00000000
_symmetry_Int_Tables_number   132
_chemical_formula_structural   K0.5Na3.5Ti2Rg1.5Cu0.5Ag1.5Au0.5Se8
_chemical_formula_sum   'K0.5 Na3.5 Ti2 Rg1.5 Cu0.5 Ag1.5 Au0.5 Se8'
_cell_volume   487.45619754
_cell_formula_units_Z   1
loop_
 _symmetry_equiv_pos_site_id
 _symmetry_equiv_pos_as_xyz
  1  'x, y, z'
  2  '-x, -y, -z'
  3  '-y, x, z+1/2'
  4  'y, -x, -z+1/2'
  5  '-x, -y, z'
  6  'x, y, -z'
  7  'y, -x, z+1/2'
  8  '-y, x, -z+1/2'
  9  'x, -y, -z+1/2'
  10  '-x, y, z+1/2'
  11  '-y, -x, -z'
  12  'y, x, z'
  13  '-x, y, -z+1/2'
  14  'x, -y, z+1/2'
  15  'y, x, -z'
  16  '-y, -x, z'
loop_
 _atom_site_type_symbol
 _atom_site_label
 _atom_site_symmetry_multiplicity
 _atom_site_fract_x
 _atom_site_fract_y
 _atom_site_fract_z
 _atom_site_occupancy
  Na+  Na0  4  0.23966000  0.23966000  0.00000000  0.875
  K+  K1  4  0.23966000  0.23966000  0.00000000  0.125
  Ti  Ti2  2  0.50000000  0.50000000  0.25000000  1.0
  Rg+  Rg3  4  0.00000000  0.50000000  0.25000000  0.375
  Cu+  Cu4  4  0.00000000  0.50000000  0.25000000  0.125
  Au+  Au5  4  0.00000000  0.50000000  0.25000000  0.125
  Ag+  Ag6  4  0.00000000  0.50000000  0.25000000  0.375
  Se  Se7  8  0.26049000  0.26049000  0.34500000  1.0
