# generated using pymatgen
data_Yb0.33333333La0.5Nd1.16666667Fe2Ge2.33333333Fl3.16666667Pb0.5
_symmetry_space_group_name_H-M  'I 4 m m'
_cell_length_a   4.36600000
_cell_length_b   4.36600000
_cell_length_c   9.97260000
_cell_angle_alpha   90.00000000
_cell_angle_beta   90.00000000
_cell_angle_gamma   90.00000000
_symmetry_Int_Tables_number   107
_chemical_formula_structural
Yb0.33333333La0.5Nd1.16666667Fe2Ge2.33333333Fl3.16666667Pb0.5
_chemical_formula_sum
'Yb0.33333333 La0.5 Nd1.16666667 Fe2 Ge2.33333333 Fl3.16666667 Pb0.5'
_cell_volume   190.09726241
_cell_formula_units_Z   1
loop_
 _symmetry_equiv_pos_site_id
 _symmetry_equiv_pos_as_xyz
  1  'x, y, z'
  2  '-y, x, z'
  3  '-x, -y, z'
  4  'y, -x, z'
  5  '-x, y, z'
  6  'y, x, z'
  7  'x, -y, z'
  8  '-y, -x, z'
  9  'x+1/2, y+1/2, z+1/2'
  10  '-y+1/2, x+1/2, z+1/2'
  11  '-x+1/2, -y+1/2, z+1/2'
  12  'y+1/2, -x+1/2, z+1/2'
  13  '-x+1/2, y+1/2, z+1/2'
  14  'y+1/2, x+1/2, z+1/2'
  15  'x+1/2, -y+1/2, z+1/2'
  16  '-y+1/2, -x+1/2, z+1/2'
loop_
 _atom_site_type_symbol
 _atom_site_label
 _atom_site_symmetry_multiplicity
 _atom_site_fract_x
 _atom_site_fract_y
 _atom_site_fract_z
 _atom_site_occupancy
  Yb+  Yb0  2  0.00000000  0.00000000  0.00000000
  0.16666666666666666
  La+  La1  2  0.00000000  0.00000000  0.00000000  0.25
  Nd+  Nd2  2  0.00000000  0.00000000  0.00000000
  0.5833333333333334
  Fe  Fe3  2  0.00000000  0.00000000  0.66360000  1.0
  Ge  Ge4  2  0.00000000  0.00000000  0.43307000  1.0
  Fl+  Fl5  4  0.00000000  0.50000000  0.25686000
  0.7916666666666666
  Pb+  Pb6  4  0.00000000  0.50000000  0.25686000  0.125
  Ge+  Ge7  4  0.00000000  0.50000000  0.25686000
  0.08333333333333333
