# generated using pymatgen
data_Cr2Sn1.16666667Fl0.66666667Ge0.16666667N16O14
_symmetry_space_group_name_H-M  'I 4 m m'
_cell_length_a   7.42600000
_cell_length_b   7.42600000
_cell_length_c   11.11300000
_cell_angle_alpha   90.00000000
_cell_angle_beta   90.00000000
_cell_angle_gamma   90.00000000
_symmetry_Int_Tables_number   107
_chemical_formula_structural
Cr2Sn1.16666667Fl0.66666667Ge0.16666667N16O14
_chemical_formula_sum
'Cr2 Sn1.16666667 Fl0.66666667 Ge0.16666667 N16 O14'
_cell_volume   612.83167479
_cell_formula_units_Z   1
loop_
 _symmetry_equiv_pos_site_id
 _symmetry_equiv_pos_as_xyz
  1  'x, y, z'
  2  '-y, x, z'
  3  '-x, -y, z'
  4  'y, -x, z'
  5  '-x, y, z'
  6  'y, x, z'
  7  'x, -y, z'
  8  '-y, -x, z'
  9  'x+1/2, y+1/2, z+1/2'
  10  '-y+1/2, x+1/2, z+1/2'
  11  '-x+1/2, -y+1/2, z+1/2'
  12  'y+1/2, -x+1/2, z+1/2'
  13  '-x+1/2, y+1/2, z+1/2'
  14  'y+1/2, x+1/2, z+1/2'
  15  'x+1/2, -y+1/2, z+1/2'
  16  '-y+1/2, -x+1/2, z+1/2'
loop_
 _atom_type_symbol
 _atom_type_oxidation_number
  Cr0+  0.0
  Sn0+  0.0
  Ge0+  0.0
  N0+  0.0
  O0+  0.0
  Fl0+  0.0
loop_
 _atom_site_type_symbol
 _atom_site_label
 _atom_site_symmetry_multiplicity
 _atom_site_fract_x
 _atom_site_fract_y
 _atom_site_fract_z
 _atom_site_occupancy
  Cr0+  Cr0  2  0.00000000  0.00000000  0.00000000  1.0
  Sn0+  Sn1  2  0.00000000  0.00000000  0.28140000
  0.5833333333333334
  Fl0+  Fl2  2  0.00000000  0.00000000  0.28140000
  0.3333333333333333
  Ge0+  Ge3  2  0.00000000  0.00000000  0.28140000
  0.08333333333333333
  N0+  N4  8  0.19790000  0.19790000  0.99440000  1.0
  N0+  N5  4  0.00000000  0.50000000  0.24680000  1.0
  N0+  N6  2  0.00000000  0.00000000  0.17680000  1.0
  N0+  N7  2  0.00000000  0.00000000  0.81200000  1.0
  O0+  O8  8  0.00000000  0.35620000  0.68860000  1.0
  O0+  O9  4  0.00000000  0.50000000  0.35420000  1.0
  O0+  O10  2  0.00000000  0.00000000  0.39010000  1.0
