# generated using pymatgen
data_Po1Te2.66666667H68C40Se2S2.33333333N20O24
_symmetry_space_group_name_H-M  'C 1 2 1'
_cell_length_a   23.12300000
_cell_length_b   9.77340000
_cell_length_c   6.33970000
_cell_angle_alpha   90.00000000
_cell_angle_beta   91.29140000
_cell_angle_gamma   90.00000000
_symmetry_Int_Tables_number   5
_chemical_formula_structural
Po1Te2.66666667H68C40Se2S2.33333333N20O24
_chemical_formula_sum
'Po1 Te2.66666667 H68 C40 Se2 S2.33333333 N20 O24'
_cell_volume   1432.34697998
_cell_formula_units_Z   1
loop_
 _symmetry_equiv_pos_site_id
 _symmetry_equiv_pos_as_xyz
  1  'x, y, z'
  2  '-x, y, -z'
  3  'x+1/2, y+1/2, z'
  4  '-x+1/2, y+1/2, -z'
loop_
 _atom_site_type_symbol
 _atom_site_label
 _atom_site_symmetry_multiplicity
 _atom_site_fract_x
 _atom_site_fract_y
 _atom_site_fract_z
 _atom_site_occupancy
  H  H0  4  0.00060000  0.57900000  0.75500000  1.0
  H  H1  4  0.00085600  0.23765800  0.24184000  1.0
  H  H2  4  0.05554400  0.76413800  0.75693300  1.0
  H  H3  4  0.06580000  0.57000000  0.26200000  1.0
  H  H4  4  0.07400000  0.39000000  0.86000000  1.0
  H  H5  4  0.07560000  0.36900000  0.64700000  1.0
  H  H6  4  0.13500000  0.63200000  0.92300000  1.0
  H  H7  4  0.13700000  0.60600000  0.71100000  1.0
  H  H8  4  0.15881100  0.74834600  0.19859700  1.0
  H  H9  4  0.17024900  0.87710600  0.48991800  1.0
  H  H10  4  0.17262300  0.01650300  0.73967200  1.0
  H  H11  4  0.19215900  0.14214400  0.30123700  1.0
  H  H12  4  0.20742500  0.55998400  0.45005000  1.0
  H  H13  4  0.22299900  0.76495700  0.92208000  1.0
  H  H14  4  0.22373500  0.44509800  0.92467200  1.0
  H  H15  4  0.22996600  0.33623100  0.54314400  1.0
  H  H16  4  0.23153600  0.20780500  0.90568800  1.0
  Se+  Se17  4  0.05374000  0.37820000  0.73710000  0.5
  Te+  Te18  4  0.05374000  0.37820000  0.73710000  0.5
  Po+  Po19  4  0.11933000  0.34817000  0.25755000  0.25
  S+  S20  4  0.11933000  0.34817000  0.25755000  0.5833333333333334
  Te+  Te21  4  0.11933000  0.34817000  0.25755000
  0.16666666666666666
  C  C22  4  0.01692000  0.03320000  0.25070000  1.0
  C  C23  4  0.02828000  0.75900000  0.25460000  1.0
  C  C24  4  0.03605000  0.96000000  0.75780000  1.0
  C  C25  4  0.06866000  0.96770000  0.26270000  1.0
  C  C26  4  0.08501000  0.19530000  0.26040000  1.0
  C  C27  4  0.17318000  0.05040000  0.29090000  1.0
  C  C28  4  0.19517000  0.95990000  0.47340000  1.0
  C  C29  4  0.23250000  0.76180000  0.07500000  1.0
  C  C30  4  0.24316000  0.90490000  0.15300000  1.0
  C  C31  4  0.24551000  0.42180000  0.60960000  1.0
  N  N32  4  0.02533000  0.81890000  0.75380000  1.0
  N  N33  4  0.02751000  0.17350000  0.24910000  1.0
  N  N34  4  0.02957000  0.62270000  0.25630000  1.0
  N  N35  4  0.07779000  0.83050000  0.26330000  1.0
  N  N36  4  0.11082000  0.06820000  0.27330000  1.0
  O  O37  4  0.08545000  0.00610000  0.76820000  1.0
  O  O38  4  0.11696000  0.63310000  0.81080000  1.0
  O  O39  4  0.18628000  0.69340000  0.18200000  1.0
  O  O40  4  0.19100000  0.98385000  0.10430000  1.0
  O  O41  4  0.20128000  0.03210000  0.66420000  1.0
  O  O42  4  0.20717000  0.53630000  0.57740000  1.0
