# generated using pymatgen
data_FrRbNaSm4SiSnGe2H53Fl4(C5O2)16
_symmetry_space_group_name_H-M  'C 1 2 1'
_cell_length_a   29.00700000
_cell_length_b   8.68760000
_cell_length_c   14.16600000
_cell_angle_alpha   90.00000000
_cell_angle_beta   116.27600000
_cell_angle_gamma   90.00000000
_symmetry_Int_Tables_number   5
_chemical_formula_structural   FrRbNaSm4SiSnGe2H53Fl4(C5O2)16
_chemical_formula_sum   'Fr1 Rb1 Na1 Sm4 Si1 Sn1 Ge2 H53 Fl4 C80 O32'
_cell_volume   3200.98361298
_cell_formula_units_Z   1
loop_
 _symmetry_equiv_pos_site_id
 _symmetry_equiv_pos_as_xyz
  1  'x, y, z'
  2  '-x, y, -z'
  3  'x+1/2, y+1/2, z'
  4  '-x+1/2, y+1/2, -z'
loop_
 _atom_site_type_symbol
 _atom_site_label
 _atom_site_symmetry_multiplicity
 _atom_site_fract_x
 _atom_site_fract_y
 _atom_site_fract_z
 _atom_site_occupancy
  H+  H0  4  0.17030000  0.03520000  0.06380000  0.25
  Fr+  Fr1  4  0.17030000  0.03520000  0.06380000  0.25
  Rb+  Rb2  4  0.17030000  0.03520000  0.06380000  0.25
  Na+  Na3  4  0.17030000  0.03520000  0.06380000  0.25
  Sm  Sm4  4  0.22716400  0.73218000  0.99451000  1.0
  H  H5  4  0.02990000  0.83410000  0.57210000  1.0
  H  H6  4  0.03500000  0.28890000  0.56660000  1.0
  H  H7  4  0.08030000  0.99040000  0.96990000  1.0
  H  H8  4  0.10500000  0.83100000  0.72560000  1.0
  H  H9  4  0.11130000  0.28610000  0.71840000  1.0
  H  H10  4  0.12780000  0.54660000  0.46960000  1.0
  H  H11  4  0.13120000  0.59310000  0.63650000  1.0
  H  H12  4  0.15740000  0.61060000  0.35490000  1.0
  H  H13  4  0.16470000  0.60540000  0.19780000  1.0
  H  H14  4  0.23320000  0.21290000  0.44130000  1.0
  H  H15  4  0.23960000  0.20450000  0.28320000  1.0
  H  H16  4  0.24180000  0.79970000  0.39660000  1.0
  H  H17  4  0.24390000  0.82350000  0.23550000  1.0
  Sn+  Sn18  4  0.21350000  0.41140000  0.12900000  0.25
  Ge+  Ge19  4  0.21350000  0.41140000  0.12900000  0.25
  Si+  Si20  4  0.21350000  0.41140000  0.12900000  0.25
  Fl+  Fl21  4  0.21350000  0.41140000  0.12900000  0.25
  C  C22  4  0.02410000  0.05880000  0.54950000  1.0
  C  C23  4  0.04930000  0.19510000  0.59700000  1.0
  C  C24  4  0.09180000  0.92430000  0.69260000  1.0
  C  C25  4  0.09530000  0.19360000  0.68860000  1.0
  C  C26  4  0.11720000  0.05790000  0.73500000  1.0
  C  C27  4  0.14640000  0.95630000  0.04770000  1.0
  C  C28  4  0.15490000  0.50740000  0.52970000  1.0
  C  C29  4  0.15630000  0.53320000  0.63000000  1.0
  C  C30  4  0.16650000  0.05540000  0.83520000  1.0
  C  C31  4  0.17490000  0.52990000  0.34200000  1.0
  C  C32  4  0.17950000  0.52740000  0.24700000  1.0
  C  C33  4  0.19360000  0.42390000  0.52100000  1.0
  C  C34  4  0.19570000  0.46750000  0.71810000  1.0
  C  C35  4  0.19600000  0.41390000  0.41680000  1.0
  C  C36  4  0.20010000  0.51250000  0.82640000  1.0
  C  C37  4  0.20560000  0.41090000  0.22720000  1.0
  C  C38  4  0.21980000  0.29320000  0.39340000  1.0
  C  C39  4  0.22430000  0.28860000  0.29850000  1.0
  C  C40  4  0.23170000  0.37480000  0.70610000  1.0
  C  C41  4  0.23240000  0.35620000  0.60900000  1.0
  Fl+  Fl42  4  0.04610000  0.92700000  0.60020000  0.75
  Ge+  Ge43  4  0.04610000  0.92700000  0.60020000  0.25
  O  O44  4  0.10000000  0.99010000  0.03330000  1.0
  O  O45  4  0.16000000  0.82230000  0.04060000  1.0
  O  O46  4  0.16820000  0.60150000  0.83090000  1.0
  O  O47  4  0.18110000  0.92640000  0.87580000  1.0
  O  O48  4  0.18870000  0.18070000  0.87050000  1.0
  O  O49  4  0.20780000  0.53490000  0.08360000  1.0
  O  O50  4  0.22370000  0.28730000  0.09860000  1.0
  O  O51  4  0.24020000  0.46820000  0.90730000  1.0
