# generated using pymatgen
data_Fr1.5Cs2.5Si2.5Sn2Ge1H76Pb2C80Fl0.5O8
_symmetry_space_group_name_H-M  'C 1 2 1'
_cell_length_a   19.58200000
_cell_length_b   6.49570000
_cell_length_c   15.89800000
_cell_angle_alpha   90.00000000
_cell_angle_beta   123.36300000
_cell_angle_gamma   90.00000000
_symmetry_Int_Tables_number   5
_chemical_formula_structural   Fr1.5Cs2.5Si2.5Sn2Ge1H76Pb2C80Fl0.5O8
_chemical_formula_sum
'Fr1.5 Cs2.5 Si2.5 Sn2 Ge1 H76 Pb2 C80 Fl0.5 O8'
_cell_volume   1688.95327170
_cell_formula_units_Z   1
loop_
 _symmetry_equiv_pos_site_id
 _symmetry_equiv_pos_as_xyz
  1  'x, y, z'
  2  '-x, y, -z'
  3  'x+1/2, y+1/2, z'
  4  '-x+1/2, y+1/2, -z'
loop_
 _atom_site_type_symbol
 _atom_site_label
 _atom_site_symmetry_multiplicity
 _atom_site_fract_x
 _atom_site_fract_y
 _atom_site_fract_z
 _atom_site_occupancy
  Fr+  Fr0  4  0.17830000  0.32680000  0.48320000  0.375
  Cs+  Cs1  4  0.17830000  0.32680000  0.48320000  0.625
  Sn+  Sn2  4  0.09337000  0.29880000  0.17994000  0.25
  Si+  Si3  4  0.09337000  0.29880000  0.17994000  0.25
  Pb+  Pb4  4  0.09337000  0.29880000  0.17994000  0.5
  H  H5  4  0.01550000  0.62990000  0.44720000  1.0
  H  H6  4  0.02710000  0.69610000  0.88280000  1.0
  H  H7  4  0.03300000  0.27050000  0.45150000  1.0
  H  H8  4  0.03990000  0.30430000  0.12380000  1.0
  H  H9  4  0.04140000  0.83850000  0.34620000  1.0
  H  H10  4  0.04800000  0.28670000  0.36420000  1.0
  H  H11  4  0.04960000  0.63960000  0.29630000  1.0
  H  H12  4  0.07630000  0.88920000  0.02750000  1.0
  H  H13  4  0.08140000  0.03080000  0.22900000  1.0
  H  H14  4  0.08350000  0.41100000  0.81650000  1.0
  H  H15  4  0.09440000  0.75440000  0.71410000  1.0
  H  H16  4  0.11970000  0.99700000  0.59110000  1.0
  H  H17  4  0.12960000  0.57300000  0.15620000  1.0
  H  H18  4  0.16050000  0.47040000  0.81490000  1.0
  H  H19  4  0.17850000  0.12900000  0.07540000  1.0
  H  H20  4  0.18310000  0.98350000  0.83530000  1.0
  H  H21  4  0.19010000  0.84760000  0.38380000  1.0
  H  H22  4  0.23260000  0.17090000  0.98030000  1.0
  H  H23  4  0.23840000  0.06120000  0.70720000  1.0
  C  C24  4  0.02305000  0.69730000  0.32745000  1.0
  C  C25  4  0.04710000  0.57350000  0.42163000  1.0
  C  C26  4  0.06831000  0.79220000  0.90150000  1.0
  C  C27  4  0.06981000  0.69390000  0.74794000  1.0
  C  C28  4  0.16243000  0.76220000  0.56909000  1.0
  Si+  Si29  4  0.13624000  0.59280000  0.50610000  0.375
  Sn+  Sn30  4  0.13624000  0.59280000  0.50610000  0.25
  Ge+  Ge31  4  0.13624000  0.59280000  0.50610000  0.25
  Fl+  Fl32  4  0.13624000  0.59280000  0.50610000  0.125
  C  C33  4  0.01944000  0.34830000  0.39213000  1.0
  C  C34  4  0.07029000  0.33960000  0.68350000  1.0
  C  C35  4  0.09793000  0.90810000  0.98854000  1.0
  C  C36  4  0.09956000  0.81860000  0.84258000  1.0
  C  C37  4  0.10117000  0.47010000  0.77541000  1.0
  C  C38  4  0.11831000  0.13590000  0.24228000  1.0
  C  C39  4  0.14747000  0.46000000  0.19914000  1.0
  C  C40  4  0.15910000  0.05090000  0.01747000  1.0
  C  C41  4  0.16114000  0.96280000  0.87379000  1.0
  C  C42  4  0.19076000  0.07630000  0.96061000  1.0
  C  C43  4  0.19450000  0.43970000  0.52603000  1.0
  C  C44  4  0.19985000  0.12050000  0.32817000  1.0
  C  C45  4  0.22641000  0.45240000  0.28068000  1.0
  C  C46  4  0.22671000  0.95170000  0.39454000  1.0
  C  C47  4  0.24446000  0.78200000  0.65308000  1.0
  O  O48  4  0.10484000  0.90905000  0.54650000  1.0
  O  O49  4  0.11634000  0.23540000  0.67235000  1.0
