# generated using pymatgen
data_Cu4Si2Sn14H32Pb0.5C40Fl1.5S0.5O17.5Lv2
_symmetry_space_group_name_H-M  'P 42/m m c'
_cell_length_a   12.37100000
_cell_length_b   12.37100000
_cell_length_c   24.06890000
_cell_angle_alpha   90.00000000
_cell_angle_beta   90.00000000
_cell_angle_gamma   90.00000000
_symmetry_Int_Tables_number   131
_chemical_formula_structural   Cu4Si2Sn14H32Pb0.5C40Fl1.5S0.5O17.5Lv2
_chemical_formula_sum
'Cu4 Si2 Sn14 H32 Pb0.5 C40 Fl1.5 S0.5 O17.5 Lv2'
_cell_volume   3683.54395306
_cell_formula_units_Z   1
loop_
 _symmetry_equiv_pos_site_id
 _symmetry_equiv_pos_as_xyz
  1  'x, y, z'
  2  '-x, -y, -z'
  3  '-y, x, z+1/2'
  4  'y, -x, -z+1/2'
  5  '-x, -y, z'
  6  'x, y, -z'
  7  'y, -x, z+1/2'
  8  '-y, x, -z+1/2'
  9  'x, -y, -z'
  10  '-x, y, z'
  11  '-y, -x, -z+1/2'
  12  'y, x, z+1/2'
  13  '-x, y, -z'
  14  'x, -y, z'
  15  'y, x, -z+1/2'
  16  '-y, -x, z+1/2'
loop_
 _atom_site_type_symbol
 _atom_site_label
 _atom_site_symmetry_multiplicity
 _atom_site_fract_x
 _atom_site_fract_y
 _atom_site_fract_z
 _atom_site_occupancy
  Cu  Cu0  4  0.10740000  0.50000000  0.00000000  1.0
  Si  Si1  2  0.00000000  0.00000000  0.25000000  1.0
  H  H2  16  0.13000000  0.16260000  0.30490000  1.0
  H  H3  16  0.15940000  0.26650000  0.12730000  1.0
  C  C4  8  0.00000000  0.11740000  0.20230000  1.0
  Sn+  Sn5  16  0.09560000  0.15680000  0.18170000  0.875
  Pb+  Pb6  16  0.09560000  0.15680000  0.18170000  0.03125
  Fl+  Fl7  16  0.09560000  0.15680000  0.18170000  0.09375
  C  C8  16  0.09320000  0.23710000  0.14050000  1.0
  C  C9  8  0.00000000  0.27320000  0.11940000  1.0
  C  C10  8  0.00000000  0.35810000  0.07320000  1.0
  O  O11  16  0.09080000  0.38780000  0.05683000  1.0
  O+  O12  4  0.29540000  0.50000000  0.00000000  0.375
  S+  S13  4  0.29540000  0.50000000  0.00000000  0.125
  Lv+  Lv14  4  0.29540000  0.50000000  0.00000000  0.5
