# generated using pymatgen
data_Si0.66666667Sn1Bi1As0.33333333Pb0.66666667C37.33333333Fl0.33333333S4N10.33
_symmetry_space_group_name_H-M  'P 1 2 1'
_cell_length_a   12.89360000
_cell_length_b   6.68210000
_cell_length_c   17.17630000
_cell_angle_alpha   90.00000000
_cell_angle_beta   108.03100000
_cell_angle_gamma   90.00000000
_symmetry_Int_Tables_number   3
_chemical_formula_structural
;
Si0.66666667Sn1Bi1As0.33333333Pb0.66666667C37.33333333Fl0.33333333S4N1
0.33333333Mc0.33333333O30
;
_chemical_formula_sum
;
Si0.66666667 Sn1 Bi1 As0.33333333 Pb0.66666667 C37.33333333
Fl0.33333333 S4 N10.33333333 Mc0.33333333 O30
;
_cell_volume   1407.17038807
_cell_formula_units_Z   1
loop_
 _symmetry_equiv_pos_site_id
 _symmetry_equiv_pos_as_xyz
  1  'x, y, z'
  2  '-x, y, -z'
loop_
 _atom_site_type_symbol
 _atom_site_label
 _atom_site_symmetry_multiplicity
 _atom_site_fract_x
 _atom_site_fract_y
 _atom_site_fract_z
 _atom_site_occupancy
  C+  C0  2  0.42180000  0.67850000  0.82570000  0.6666666666666666
  Sn+  Sn1  2  0.42180000  0.67850000  0.82570000
  0.16666666666666666
  Si+  Si2  2  0.42180000  0.67850000  0.82570000
  0.16666666666666666
  C  C3  2  0.02180000  0.04690000  0.20710000  1.0
  C  C4  2  0.07910000  0.46380000  0.90890000  1.0
  C  C5  2  0.10210000  0.24400000  0.91450000  1.0
  C  C6  2  0.10270000  0.04540000  0.79980000  1.0
  C  C7  2  0.10650000  0.30020000  0.69640000  1.0
  C  C8  2  0.11280000  0.35610000  0.62420000  1.0
  C  C9  2  0.13120000  0.21170000  0.57100000  1.0
  C  C10  2  0.13820000  0.95370000  0.67350000  1.0
  C  C11  2  0.18080000  0.77470000  0.42830000  1.0
  C  C12  2  0.19120000  0.62160000  0.36350000  1.0
  C  C13  2  0.31120000  0.00700000  0.12220000  1.0
  C  C14  2  0.33120000  0.85550000  0.05840000  1.0
  C  C15  2  0.38520000  0.42420000  0.91460000  1.0
  C  C16  2  0.39210000  0.62200000  0.63570000  1.0
  C  C17  2  0.40280000  0.27330000  0.86200000  1.0
  C  C18  2  0.41520000  0.13300000  0.35780000  1.0
  C  C19  2  0.43290000  0.33080000  0.79720000  1.0
  C  C20  2  0.48340000  0.58890000  0.71160000  1.0
  Pb+  Pb21  2  0.46200000  0.36060000  0.37520000
  0.3333333333333333
  Si+  Si22  2  0.46200000  0.36060000  0.37520000
  0.16666666666666666
  Sn+  Sn23  2  0.46200000  0.36060000  0.37520000
  0.3333333333333333
  Fl+  Fl24  2  0.46200000  0.36060000  0.37520000
  0.16666666666666666
  S  S25  2  0.01458000  0.08010000  0.10154000  1.0
  S  S26  2  0.40046000  0.35610000  0.58100000  1.0
  Bi+  Bi27  2  0.13990000  0.01500000  0.59720000  0.5
  N+  N28  2  0.13990000  0.01500000  0.59720000
  0.16666666666666666
  Mc+  Mc29  2  0.13990000  0.01500000  0.59720000
  0.16666666666666666
  As+  As30  2  0.13990000  0.01500000  0.59720000
  0.16666666666666666
  N  N31  2  0.11930000  0.10490000  0.72170000  1.0
  N  N32  2  0.13830000  0.25360000  0.49850000  1.0
  N  N33  2  0.36470000  0.38060000  0.98220000  1.0
  N  N34  2  0.39180000  0.61610000  0.89340000  1.0
  N  N35  2  0.44220000  0.52690000  0.77910000  1.0
  O  O36  2  0.00590000  0.52690000  0.83260000  1.0
  O  O37  2  0.14890000  0.77930000  0.69250000  1.0
  O  O38  2  0.15350000  0.70720000  0.48640000  1.0
  O  O39  2  0.15650000  0.19480000  0.85630000  1.0
  O  O40  2  0.15680000  0.44970000  0.36100000  1.0
  O  O41  2  0.20180000  0.94970000  0.41450000  1.0
  O  O42  2  0.21470000  0.50340000  0.17510000  1.0
  O  O43  2  0.23500000  0.69730000  0.31200000  1.0
  O  O44  2  0.29460000  0.12780000  0.31190000  1.0
  O  O45  2  0.29880000  0.91680000  0.18600000  1.0
  O  O46  2  0.31250000  0.18370000  0.11480000  1.0
  O  O47  2  0.31960000  0.67870000  0.07200000  1.0
  O  O48  2  0.35500000  0.92660000  0.99900000  1.0
  O  O49  2  0.42580000  0.85470000  0.80900000  1.0
  O  O50  2  0.44390000  0.43800000  0.29480000  1.0
