# generated using pymatgen
data_Ba0.25Sr2.5Ca3Mg8.5Be1.75Si8O32
_symmetry_space_group_name_H-M  'I m m a'
_cell_length_a   5.70160000
_cell_length_b   11.44270000
_cell_length_c   8.24910000
_cell_angle_alpha   90.00000000
_cell_angle_beta   90.00000000
_cell_angle_gamma   90.00000000
_symmetry_Int_Tables_number   74
_chemical_formula_structural   Ba0.25Sr2.5Ca3Mg8.5Be1.75Si8O32
_chemical_formula_sum   'Ba0.25 Sr2.5 Ca3 Mg8.5 Be1.75 Si8 O32'
_cell_volume   538.18529361
_cell_formula_units_Z   1
loop_
 _symmetry_equiv_pos_site_id
 _symmetry_equiv_pos_as_xyz
  1  'x, y, z'
  2  '-x, -y, -z'
  3  '-x+1/2, -y, z+1/2'
  4  'x+1/2, y, -z+1/2'
  5  'x, -y, -z'
  6  '-x, y, z'
  7  '-x+1/2, y, -z+1/2'
  8  'x+1/2, -y, z+1/2'
  9  'x+1/2, y+1/2, z+1/2'
  10  '-x+1/2, -y+1/2, -z+1/2'
  11  '-x, -y+1/2, z'
  12  'x, y+1/2, -z'
  13  'x+1/2, -y+1/2, -z+1/2'
  14  '-x+1/2, y+1/2, z+1/2'
  15  '-x, y+1/2, -z'
  16  'x, -y+1/2, z'
loop_
 _atom_site_type_symbol
 _atom_site_label
 _atom_site_symmetry_multiplicity
 _atom_site_fract_x
 _atom_site_fract_y
 _atom_site_fract_z
 _atom_site_occupancy
  Mg+  Mg0  4  0.00000000  0.25000000  0.97260000  0.125
  Sr+  Sr1  4  0.00000000  0.25000000  0.97260000  0.125
  Ca+  Ca2  4  0.00000000  0.25000000  0.97260000  0.75
  Sr+  Sr3  4  0.00000000  0.00000000  0.00000000  0.5
  Be+  Be4  4  0.00000000  0.00000000  0.00000000  0.4375
  Ba+  Ba5  4  0.00000000  0.00000000  0.00000000  0.0625
  Mg  Mg6  8  0.25000000  0.12860000  0.25000000  1
  Si  Si7  8  0.00000000  0.11870000  0.61750000  1
  O  O8  16  0.23760000  0.12270000  0.50550000  1
  O  O9  8  0.00000000  0.00710000  0.74520000  1
  O  O10  4  0.00000000  0.25000000  0.21770000  1
  O  O11  4  0.00000000  0.25000000  0.71790000  1
