# generated using pymatgen
data_Ta0.55555556Nb0.22222222V3.22222222Co4C8N12F20
_symmetry_space_group_name_H-M  'I m m a'
_cell_length_a   9.07380000
_cell_length_b   7.46270000
_cell_length_c   9.44070000
_cell_angle_alpha   90.00000000
_cell_angle_beta   90.00000000
_cell_angle_gamma   90.00000000
_symmetry_Int_Tables_number   74
_chemical_formula_structural
Ta0.55555556Nb0.22222222V3.22222222Co4C8N12F20
_chemical_formula_sum
'Ta0.55555556 Nb0.22222222 V3.22222222 Co4 C8 N12 F20'
_cell_volume   639.27744667
_cell_formula_units_Z   1
loop_
 _symmetry_equiv_pos_site_id
 _symmetry_equiv_pos_as_xyz
  1  'x, y, z'
  2  '-x, -y, -z'
  3  '-x, -y+1/2, z'
  4  'x, y+1/2, -z'
  5  '-x, y+1/2, -z'
  6  'x, -y+1/2, z'
  7  'x, -y, -z'
  8  '-x, y, z'
  9  'x+1/2, y+1/2, z+1/2'
  10  '-x+1/2, -y+1/2, -z+1/2'
  11  '-x+1/2, -y, z+1/2'
  12  'x+1/2, y, -z+1/2'
  13  '-x+1/2, y, -z+1/2'
  14  'x+1/2, -y, z+1/2'
  15  'x+1/2, -y+1/2, -z+1/2'
  16  '-x+1/2, y+1/2, z+1/2'
loop_
 _atom_site_type_symbol
 _atom_site_label
 _atom_site_symmetry_multiplicity
 _atom_site_fract_x
 _atom_site_fract_y
 _atom_site_fract_z
 _atom_site_occupancy
  V+  V0  4  0.00000000  0.00000000  0.00000000  0.8055555555555556
  Nb+  Nb1  4  0.00000000  0.00000000  0.00000000
  0.05555555555555555
  Ta+  Ta2  4  0.00000000  0.00000000  0.00000000
  0.1388888888888889
  Co  Co3  4  0.25000000  0.25000000  0.25000000  1.0
  C  C4  8  0.12230000  0.25000000  0.54850000  1.0
  N  N5  8  0.07520000  0.25000000  0.42070000  1.0
  N  N6  4  0.00000000  0.25000000  0.63420000  1.0
  F  F7  16  0.14800000  0.05570000  0.13560000  1.0
  F  F8  4  0.00000000  0.25000000  0.92310000  1.0
