# generated using pymatgen
data_Zn0.5Cd0.25Cn0.25Bi0.75Sb0.25As0.25P0.75O6
_symmetry_space_group_name_H-M  'P -3 1 m'
_cell_length_a   4.82690000
_cell_length_b   4.82690000
_cell_length_c   4.86600000
_cell_angle_alpha   90.00000000
_cell_angle_beta   90.00000000
_cell_angle_gamma   120.00000000
_symmetry_Int_Tables_number   162
_chemical_formula_structural
Zn0.5Cd0.25Cn0.25Bi0.75Sb0.25As0.25P0.75O6
_chemical_formula_sum
'Zn0.5 Cd0.25 Cn0.25 Bi0.75 Sb0.25 As0.25 P0.75 O6'
_cell_volume   98.18368760
_cell_formula_units_Z   1
loop_
 _symmetry_equiv_pos_site_id
 _symmetry_equiv_pos_as_xyz
  1  'x, y, z'
  2  '-x, -y, -z'
  3  '-y, x-y, z'
  4  'y, -x+y, -z'
  5  '-x+y, -x, z'
  6  'x-y, x, -z'
  7  '-y, -x, -z'
  8  'y, x, z'
  9  '-x+y, y, -z'
  10  'x-y, -y, z'
  11  'x, x-y, -z'
  12  '-x, -x+y, z'
loop_
 _atom_site_type_symbol
 _atom_site_label
 _atom_site_symmetry_multiplicity
 _atom_site_fract_x
 _atom_site_fract_y
 _atom_site_fract_z
 _atom_site_occupancy
  Zn+  Zn0  1  0.00000000  0.00000000  0.00000000  0.5
  Cd+  Cd1  1  0.00000000  0.00000000  0.00000000  0.25
  Cn+  Cn2  1  0.00000000  0.00000000  0.00000000  0.25
  P+  P3  2  0.33333333  0.66666667  0.50000000  0.375
  Sb+  Sb4  2  0.33333333  0.66666667  0.50000000  0.125
  As+  As5  2  0.33333333  0.66666667  0.50000000  0.125
  Bi+  Bi6  2  0.33333333  0.66666667  0.50000000  0.375
  O  O7  6  0.00000000  0.37570000  0.70870000  1
