# generated using pymatgen
data_K2Ba0.33333333Sr0.5Mg1.16666667Si2O7
_symmetry_space_group_name_H-M  'P -3 1 m'
_cell_length_a   5.07560000
_cell_length_b   5.07560000
_cell_length_c   6.59690000
_cell_angle_alpha   90.00000000
_cell_angle_beta   90.00000000
_cell_angle_gamma   120.00000000
_symmetry_Int_Tables_number   162
_chemical_formula_structural   K2Ba0.33333333Sr0.5Mg1.16666667Si2O7
_chemical_formula_sum   'K2 Ba0.33333333 Sr0.5 Mg1.16666667 Si2 O7'
_cell_volume   147.17881772
_cell_formula_units_Z   1
loop_
 _symmetry_equiv_pos_site_id
 _symmetry_equiv_pos_as_xyz
  1  'x, y, z'
  2  '-x, -y, -z'
  3  '-y, x-y, z'
  4  'y, -x+y, -z'
  5  '-x+y, -x, z'
  6  'x-y, x, -z'
  7  '-y, -x, -z'
  8  'y, x, z'
  9  '-x+y, y, -z'
  10  'x-y, -y, z'
  11  'x, x-y, -z'
  12  '-x, -x+y, z'
loop_
 _atom_site_type_symbol
 _atom_site_label
 _atom_site_symmetry_multiplicity
 _atom_site_fract_x
 _atom_site_fract_y
 _atom_site_fract_z
 _atom_site_occupancy
  K  K0  2  0.33333333  0.66666667  0.50000000  1.0
  Mg+  Mg1  2  0.33333333  0.66666667  0.00000000
  0.5833333333333334
  Sr+  Sr2  2  0.33333333  0.66666667  0.00000000  0.25
  Ba+  Ba3  2  0.33333333  0.66666667  0.00000000
  0.16666666666666666
  Si  Si4  2  0.00000000  0.00000000  0.24350000  1.0
  O  O5  6  0.00000000  0.31010000  0.81860000  1.0
  O  O6  1  0.00000000  0.00000000  0.50000000  1.0
