# generated using pymatgen
data_Cs1.5Te4.5H0.5Ts1Se1.5I0.5Br0.5
_symmetry_space_group_name_H-M  'P 63 2 2'
_cell_length_a   5.48400000
_cell_length_b   5.48400000
_cell_length_c   5.17700000
_cell_angle_alpha   90.00000000
_cell_angle_beta   90.00000000
_cell_angle_gamma   120.00000000
_symmetry_Int_Tables_number   182
_chemical_formula_structural   Cs1.5Te4.5H0.5Ts1Se1.5I0.5Br0.5
_chemical_formula_sum   'Cs1.5 Te4.5 H0.5 Ts1 Se1.5 I0.5 Br0.5'
_cell_volume   134.83532582
_cell_formula_units_Z   1
loop_
 _symmetry_equiv_pos_site_id
 _symmetry_equiv_pos_as_xyz
  1  'x, y, z'
  2  'x-y, x, z+1/2'
  3  '-y, x-y, z'
  4  '-x, -y, z+1/2'
  5  '-x+y, -x, z'
  6  'y, -x+y, z+1/2'
  7  '-y, -x, -z+1/2'
  8  '-x, -x+y, -z'
  9  '-x+y, y, -z+1/2'
  10  'y, x, -z'
  11  'x, x-y, -z+1/2'
  12  'x-y, -y, -z'
loop_
 _atom_type_symbol
 _atom_type_oxidation_number
  Cs0+  0.0
  Te0+  0.0
  H0+  0.0
  Se0+  0.0
  I0+  0.0
  Br0+  0.0
  Ts0+  0.0
loop_
 _atom_site_type_symbol
 _atom_site_label
 _atom_site_symmetry_multiplicity
 _atom_site_fract_x
 _atom_site_fract_y
 _atom_site_fract_z
 _atom_site_occupancy
  Cs0+  Cs0  2  0.00000000  0.00000000  0.25000000  0.75
  H0+  H1  2  0.00000000  0.00000000  0.25000000  0.25
  Ts0+  Ts2  2  0.33333333  0.66666667  0.25000000  0.5
  I0+  I3  2  0.33333333  0.66666667  0.25000000  0.25
  Br0+  Br4  2  0.33333333  0.66666667  0.25000000  0.25
  Se0+  Se5  6  0.00000000  0.33000000  0.00000000  0.25
  Te0+  Te6  6  0.00000000  0.33000000  0.00000000  0.75
