# generated using pymatgen
data_Ca2Ta7VPoSe9(SO)6
_symmetry_space_group_name_H-M  'P 63 2 2'
_cell_length_a   6.21300000
_cell_length_b   6.21300000
_cell_length_c   12.26500000
_cell_angle_alpha   90.00000000
_cell_angle_beta   90.00000000
_cell_angle_gamma   120.00000000
_symmetry_Int_Tables_number   182
_chemical_formula_structural   Ca2Ta7VPoSe9(SO)6
_chemical_formula_sum   'Ca2 Ta7 V1 Po1.0 Se9.0 S6 O6'
_cell_volume   410.01608213
_cell_formula_units_Z   1
loop_
 _symmetry_equiv_pos_site_id
 _symmetry_equiv_pos_as_xyz
  1  'x, y, z'
  2  'x-y, x, z+1/2'
  3  '-y, x-y, z'
  4  '-x, -y, z+1/2'
  5  '-x+y, -x, z'
  6  'y, -x+y, z+1/2'
  7  '-y, -x, -z+1/2'
  8  '-x, -x+y, -z'
  9  '-x+y, y, -z+1/2'
  10  'y, x, -z'
  11  'x, x-y, -z+1/2'
  12  'x-y, -y, -z'
loop_
 _atom_type_symbol
 _atom_type_oxidation_number
  Ca0+  0.0
  Ta0+  0.0
  V0+  0.0
  Po0+  0.0
  Se0+  0.0
  S0+  0.0
  O0+  0.0
loop_
 _atom_site_type_symbol
 _atom_site_label
 _atom_site_symmetry_multiplicity
 _atom_site_fract_x
 _atom_site_fract_y
 _atom_site_fract_z
 _atom_site_occupancy
  Ca0+  Ca0  2  0.33333333  0.66666667  0.75000000  1.0
  Ta0+  Ta1  6  0.00000000  0.35920000  0.00000000  1.0
  Ta0+  Ta2  2  0.33333333  0.66666667  0.25000000  0.5
  V0+  V3  2  0.33333333  0.66666667  0.25000000  0.5
  S0+  S4  12  0.05500000  0.43000000  0.15600000
  0.4166666666666667
  Se0+  Se5  12  0.05500000  0.43000000  0.15600000
  0.5833333333333334
  O0+  O6  6  0.00000000  0.24600000  0.50000000  0.3333333333333333
  Se0+  Se7  6  0.00000000  0.24600000  0.50000000
  0.3333333333333333
  Po0+  Po8  6  0.00000000  0.24600000  0.50000000
  0.16666666666666666
  S0+  S9  6  0.00000000  0.24600000  0.50000000
  0.16666666666666666
  O0+  O10  4  0.33333333  0.66666667  0.96600000  1.0
