# generated using pymatgen
data_Ba4.25Ra0.75Ta4Se4.5O10.5
_symmetry_space_group_name_H-M  'P -3 m 1'
_cell_length_a   5.78920000
_cell_length_b   5.78920000
_cell_length_c   11.82020000
_cell_angle_alpha   90.00000000
_cell_angle_beta   90.00000000
_cell_angle_gamma   120.00000000
_symmetry_Int_Tables_number   164
_chemical_formula_structural   Ba4.25Ra0.75Ta4Se4.5O10.5
_chemical_formula_sum   'Ba4.25 Ra0.75 Ta4 Se4.5 O10.5'
_cell_volume   343.07775816
_cell_formula_units_Z   1
loop_
 _symmetry_equiv_pos_site_id
 _symmetry_equiv_pos_as_xyz
  1  'x, y, z'
  2  '-x, -y, -z'
  3  '-y, x-y, z'
  4  'y, -x+y, -z'
  5  '-x+y, -x, z'
  6  'x-y, x, -z'
  7  'y, x, -z'
  8  '-y, -x, z'
  9  'x-y, -y, -z'
  10  '-x+y, y, z'
  11  '-x, -x+y, -z'
  12  'x, x-y, z'
loop_
 _atom_type_symbol
 _atom_type_oxidation_number
  Ba2+  2.0
  Ra2+  2.0
  Ta5+  5.0
  Se2-  -2.0
  O2-  -2.0
loop_
 _atom_site_type_symbol
 _atom_site_label
 _atom_site_symmetry_multiplicity
 _atom_site_fract_x
 _atom_site_fract_y
 _atom_site_fract_z
 _atom_site_occupancy
  Ba2+  Ba0  2  0.33333333  0.66666667  0.43040000  1.0
  Ba2+  Ba1  1  0.00000000  0.00000000  0.00000000  1.0
  Ba2+  Ba2  2  0.33333333  0.66666667  0.78720000  0.625
  Ra2+  Ra3  2  0.33333333  0.66666667  0.78720000  0.375
  Ta5+  Ta4  2  0.00000000  0.00000000  0.31410000  1.0
  Ta5+  Ta5  2  0.33333333  0.66666667  0.10290000  1.0
  Se2-  Se6  6  0.16790000  0.33580000  0.19220000  0.75
  O2-  O7  6  0.16790000  0.33580000  0.19220000  0.25
  O2-  O8  6  0.16410000  0.32820000  0.61590000  1.0
  O2-  O9  3  0.00000000  0.50000000  0.00000000  1.0
