# generated using pymatgen
data_La0.66666667Eu0.5Dy0.83333333Te0.83333333Lv0.16666667O2
_symmetry_space_group_name_H-M  'P -3 m 1'
_cell_length_a   3.80700000
_cell_length_b   3.80700000
_cell_length_c   6.76600000
_cell_angle_alpha   90.00000000
_cell_angle_beta   90.00000000
_cell_angle_gamma   120.00000000
_symmetry_Int_Tables_number   164
_chemical_formula_structural
La0.66666667Eu0.5Dy0.83333333Te0.83333333Lv0.16666667O2
_chemical_formula_sum
'La0.66666667 Eu0.5 Dy0.83333333 Te0.83333333 Lv0.16666667 O2'
_cell_volume   84.92359662
_cell_formula_units_Z   1
loop_
 _symmetry_equiv_pos_site_id
 _symmetry_equiv_pos_as_xyz
  1  'x, y, z'
  2  '-x, -y, -z'
  3  '-y, x-y, z'
  4  'y, -x+y, -z'
  5  '-x+y, -x, z'
  6  'x-y, x, -z'
  7  'y, x, -z'
  8  '-y, -x, z'
  9  'x-y, -y, -z'
  10  '-x+y, y, z'
  11  '-x, -x+y, -z'
  12  'x, x-y, z'
loop_
 _atom_type_symbol
 _atom_type_oxidation_number
  La0+  0.0
  Eu0+  0.0
  Dy0+  0.0
  Te0+  0.0
  O0+  0.0
  Lv0+  0.0
loop_
 _atom_site_type_symbol
 _atom_site_label
 _atom_site_symmetry_multiplicity
 _atom_site_fract_x
 _atom_site_fract_y
 _atom_site_fract_z
 _atom_site_occupancy
  La0+  La0  2  0.33333333  0.66666667  0.29000000
  0.3333333333333333
  Dy0+  Dy1  2  0.33333333  0.66666667  0.29000000
  0.4166666666666667
  Eu0+  Eu2  2  0.33333333  0.66666667  0.29000000  0.25
  Te0+  Te3  1  0.00000000  0.00000000  0.00000000
  0.8333333333333334
  Lv0+  Lv4  1  0.00000000  0.00000000  0.00000000
  0.16666666666666666
  O0+  O5  2  0.33333333  0.66666667  0.62000000  1.0
