# generated using pymatgen
data_Ni1Po1.08333333H2Lv0.33333333Se0.58333333
_symmetry_space_group_name_H-M  'P -3 m 1'
_cell_length_a   3.12680000
_cell_length_b   3.12680000
_cell_length_c   4.60600000
_cell_angle_alpha   90.00000000
_cell_angle_beta   90.00000000
_cell_angle_gamma   120.00000000
_symmetry_Int_Tables_number   164
_chemical_formula_structural
Ni1Po1.08333333H2Lv0.33333333Se0.58333333
_chemical_formula_sum
'Ni1 Po1.08333333 H2 Lv0.33333333 Se0.58333333'
_cell_volume   38.99911681
_cell_formula_units_Z   1
loop_
 _symmetry_equiv_pos_site_id
 _symmetry_equiv_pos_as_xyz
  1  'x, y, z'
  2  '-x, -y, -z'
  3  '-y, x-y, z'
  4  'y, -x+y, -z'
  5  '-x+y, -x, z'
  6  'x-y, x, -z'
  7  'y, x, -z'
  8  '-y, -x, z'
  9  'x-y, -y, -z'
  10  '-x+y, y, z'
  11  '-x, -x+y, -z'
  12  'x, x-y, z'
loop_
 _atom_type_symbol
 _atom_type_oxidation_number
  Ni2+  2.0
  Po2-  -2.0
  H+  1.0
  Se2-  -2.0
  Lv2-  -2.0
loop_
 _atom_site_type_symbol
 _atom_site_label
 _atom_site_symmetry_multiplicity
 _atom_site_fract_x
 _atom_site_fract_y
 _atom_site_fract_z
 _atom_site_occupancy
  Ni2+  Ni0  1  0.00000000  0.00000000  0.00000000  1.0
  H+  H1  2  0.33333333  0.66666667  0.45370000  1.0
  Po2-  Po2  2  0.33333333  0.66666667  0.21530000
  0.5416666666666666
  Lv2-  Lv3  2  0.33333333  0.66666667  0.21530000
  0.16666666666666666
  Se2-  Se4  2  0.33333333  0.66666667  0.21530000
  0.2916666666666667
