# generated using pymatgen
data_Pu2Nh1.25In2.5Ga8.25
_symmetry_space_group_name_H-M  'P 4/n b m :1'
_cell_length_a   5.94200000
_cell_length_b   5.94200000
_cell_length_c   7.61700000
_cell_angle_alpha   90.00000000
_cell_angle_beta   90.00000000
_cell_angle_gamma   90.00000000
_symmetry_Int_Tables_number   125
_chemical_formula_structural   Pu2Nh1.25In2.5Ga8.25
_chemical_formula_sum   'Pu2 Nh1.25 In2.5 Ga8.25'
_cell_volume   268.93619159
_cell_formula_units_Z   1
loop_
 _symmetry_equiv_pos_site_id
 _symmetry_equiv_pos_as_xyz
  1  'x, y, z'
  2  '-y, x, z'
  3  '-x, -y, z'
  4  'y, -x, z'
  5  'x, -y, -z'
  6  '-y, -x, -z'
  7  '-x, y, -z'
  8  'y, x, -z'
  9  '-x+1/2, -y+1/2, -z'
  10  'y+1/2, -x+1/2, -z'
  11  'x+1/2, y+1/2, -z'
  12  '-y+1/2, x+1/2, -z'
  13  '-x+1/2, y+1/2, z'
  14  'y+1/2, x+1/2, z'
  15  'x+1/2, -y+1/2, z'
  16  '-y+1/2, -x+1/2, z'
loop_
 _atom_site_type_symbol
 _atom_site_label
 _atom_site_symmetry_multiplicity
 _atom_site_fract_x
 _atom_site_fract_y
 _atom_site_fract_z
 _atom_site_occupancy
  Pu  Pu0  2  0.00000000  0.50000000  0.00000000  1.0
  Nh+  Nh1  4  0.00000000  0.00000000  0.16700000  0.3125
  In+  In2  4  0.00000000  0.00000000  0.16700000  0.625
  Ga+  Ga3  4  0.00000000  0.00000000  0.16700000  0.0625
  Ga  Ga4  8  0.18700000  0.31300000  0.65000000  1.0
