# generated using pymatgen
data_Cu0.5Rg1Rb0.5K0.5Na0.5Li0.5Ag0.5Bi1B2Sb2As3H16C16N2F12
_symmetry_space_group_name_H-M  'P 4/n b m :2'
_cell_length_a   9.68720000
_cell_length_b   9.68720000
_cell_length_c   6.59980000
_cell_angle_alpha   90.00000000
_cell_angle_beta   90.00000000
_cell_angle_gamma   90.00000000
_symmetry_Int_Tables_number   125
_chemical_formula_structural
Cu0.5Rg1Rb0.5K0.5Na0.5Li0.5Ag0.5Bi1B2Sb2As3H16C16N2F12
_chemical_formula_sum
'Cu0.5 Rg1 Rb0.5 K0.5 Na0.5 Li0.5 Ag0.5 Bi1 B2 Sb2 As3 H16 C16 N2 F12'
_cell_volume   619.33740098
_cell_formula_units_Z   1
loop_
 _symmetry_equiv_pos_site_id
 _symmetry_equiv_pos_as_xyz
  1  'x, y, z'
  2  '-y+1/2, x, z'
  3  '-x+1/2, -y+1/2, z'
  4  'y, -x+1/2, z'
  5  'x, -y+1/2, -z'
  6  '-y+1/2, -x+1/2, -z'
  7  '-x+1/2, y, -z'
  8  'y, x, -z'
  9  '-x, -y, -z'
  10  'y+1/2, -x, -z'
  11  'x+1/2, y+1/2, -z'
  12  '-y, x+1/2, -z'
  13  '-x, y+1/2, z'
  14  'y+1/2, x+1/2, z'
  15  'x+1/2, -y, z'
  16  '-y, -x, z'
loop_
 _atom_site_type_symbol
 _atom_site_label
 _atom_site_symmetry_multiplicity
 _atom_site_fract_x
 _atom_site_fract_y
 _atom_site_fract_z
 _atom_site_occupancy
  Cu+  Cu0  2  0.25000000  0.25000000  0.50000000  0.25
  Rg+  Rg1  2  0.25000000  0.25000000  0.50000000  0.5
  Ag+  Ag2  2  0.25000000  0.25000000  0.50000000  0.25
  Na+  Na3  2  0.25000000  0.25000000  0.00000000  0.25
  Li+  Li4  2  0.25000000  0.25000000  0.00000000  0.25
  Rb+  Rb5  2  0.25000000  0.25000000  0.00000000  0.25
  K+  K6  2  0.25000000  0.25000000  0.00000000  0.25
  B  B7  2  0.25000000  0.75000000  0.00000000  1.0
  H  H8  16  0.01020000  0.15940000  0.24520000  1.0
  As+  As9  8  0.10100000  0.10100000  0.50000000  0.375
  Sb+  Sb10  8  0.10100000  0.10100000  0.50000000  0.25
  Bi+  Bi11  8  0.10100000  0.10100000  0.50000000  0.125
  N+  N12  8  0.10100000  0.10100000  0.50000000  0.25
  C  C13  16  0.00750000  0.09400000  0.35230000  1.0
  F  F14  8  0.16570000  0.66570000  0.89030000  1.0
  F  F15  4  0.25000000  0.25000000  0.16730000  1.0
