# generated using pymatgen
data_Cu2Si6Sn4Ge6B2H18N8(ClF3)3
_symmetry_space_group_name_H-M  'P 4/n b m :2'
_cell_length_a   9.69010000
_cell_length_b   9.69010000
_cell_length_c   6.61930000
_cell_angle_alpha   90.00000000
_cell_angle_beta   90.00000000
_cell_angle_gamma   90.00000000
_symmetry_Int_Tables_number   125
_chemical_formula_structural   Cu2Si6Sn4Ge6B2H18N8(ClF3)3
_chemical_formula_sum   'Cu2 Si6 Sn4 Ge6 B2 H18 N8 Cl3 F9'
_cell_volume   621.53928300
_cell_formula_units_Z   1
loop_
 _symmetry_equiv_pos_site_id
 _symmetry_equiv_pos_as_xyz
  1  'x, y, z'
  2  '-y+1/2, x, z'
  3  '-x+1/2, -y+1/2, z'
  4  'y, -x+1/2, z'
  5  'x, -y+1/2, -z'
  6  '-y+1/2, -x+1/2, -z'
  7  '-x+1/2, y, -z'
  8  'y, x, -z'
  9  '-x, -y, -z'
  10  'y+1/2, -x, -z'
  11  'x+1/2, y+1/2, -z'
  12  '-y, x+1/2, -z'
  13  '-x, y+1/2, z'
  14  'y+1/2, x+1/2, z'
  15  'x+1/2, -y, z'
  16  '-y, -x, z'
loop_
 _atom_site_type_symbol
 _atom_site_label
 _atom_site_symmetry_multiplicity
 _atom_site_fract_x
 _atom_site_fract_y
 _atom_site_fract_z
 _atom_site_occupancy
  Cu  Cu0  2  0.25000000  0.25000000  0.50000000  1.0
  Sn+  Sn1  16  0.00840000  0.09300000  0.35220000  0.25
  Si+  Si2  16  0.00840000  0.09300000  0.35220000  0.375
  Ge+  Ge3  16  0.00840000  0.09300000  0.35220000  0.375
  B  B4  2  0.25000000  0.75000000  0.00000000  1.0
  H  H5  16  0.01150000  0.15640000  0.24690000  1.0
  H  H6  2  0.25000000  0.25000000  0.00000000  1.0
  N  N7  8  0.10120000  0.39880000  0.50000000  1.0
  Cl+  Cl8  8  0.16600000  0.66600000  0.89440000  0.375
  F+  F9  8  0.16600000  0.66600000  0.89440000  0.625
  F  F10  4  0.25000000  0.25000000  0.16650000  1.0
