# generated using pymatgen
data_La0.5Ce1Pm0.5Gd1S3Br2Cl0.5Ts0.5
_symmetry_space_group_name_H-M  'P -6'
_cell_length_a   10.73700000
_cell_length_b   10.73700000
_cell_length_c   4.17900000
_cell_angle_alpha   90.00000000
_cell_angle_beta   90.00000000
_cell_angle_gamma   120.00000000
_symmetry_Int_Tables_number   174
_chemical_formula_structural   La0.5Ce1Pm0.5Gd1S3Br2Cl0.5Ts0.5
_chemical_formula_sum   'La0.5 Ce1 Pm0.5 Gd1 S3 Br2 Cl0.5 Ts0.5'
_cell_volume   417.22364132
_cell_formula_units_Z   1
loop_
 _symmetry_equiv_pos_site_id
 _symmetry_equiv_pos_as_xyz
  1  'x, y, z'
  2  '-x+y, -x, -z'
  3  '-y, x-y, z'
  4  'x, y, -z'
  5  '-x+y, -x, z'
  6  '-y, x-y, -z'
loop_
 _atom_type_symbol
 _atom_type_oxidation_number
  La3+  3.0
  Ce3+  3.0
  Pm3+  3.0
  Gd3+  3.0
  S2-  -2.0
  Br+  1.0
  Cl+  1.0
  Ts+  1.0
loop_
 _atom_site_type_symbol
 _atom_site_label
 _atom_site_symmetry_multiplicity
 _atom_site_fract_x
 _atom_site_fract_y
 _atom_site_fract_z
 _atom_site_occupancy
  Gd3+  Gd0  3  0.36500000  0.18600000  0.50000000
  0.3333333333333333
  Pm3+  Pm1  3  0.36500000  0.18600000  0.50000000
  0.16666666666666666
  Ce3+  Ce2  3  0.36500000  0.18600000  0.50000000
  0.3333333333333333
  La3+  La3  3  0.36500000  0.18600000  0.50000000
  0.16666666666666666
  S2-  S4  3  0.18400000  0.36800000  0.50000000  1.0
  Br+  Br5  3  0.50200000  0.01900000  0.00000000
  0.6666666666666666
  Cl+  Cl6  3  0.50200000  0.01900000  0.00000000
  0.16666666666666666
  Ts+  Ts7  3  0.50200000  0.01900000  0.00000000
  0.16666666666666666
