# generated using pymatgen
data_Nd18Sn1Po1.5Ge2C15O64Lv1Se4.5S1.0
_symmetry_space_group_name_H-M  'P -6'
_cell_length_a   12.32000000
_cell_length_b   12.32000000
_cell_length_c   9.88000000
_cell_angle_alpha   90.00000000
_cell_angle_beta   90.00000000
_cell_angle_gamma   120.00000000
_symmetry_Int_Tables_number   174
_chemical_formula_structural   Nd18Sn1Po1.5Ge2C15O64Lv1Se4.5S1.0
_chemical_formula_sum   'Nd18 Sn1 Po1.5 Ge2 C15 O64 Lv1 Se4.5 S1.0'
_cell_volume   1298.70045276
_cell_formula_units_Z   1
loop_
 _symmetry_equiv_pos_site_id
 _symmetry_equiv_pos_as_xyz
  1  'x, y, z'
  2  '-x+y, -x, -z'
  3  '-y, x-y, z'
  4  'x, y, -z'
  5  '-x+y, -x, z'
  6  '-y, x-y, -z'
loop_
 _atom_site_type_symbol
 _atom_site_label
 _atom_site_symmetry_multiplicity
 _atom_site_fract_x
 _atom_site_fract_y
 _atom_site_fract_z
 _atom_site_occupancy
  Nd  Nd0  6  0.20920000  0.43630000  0.26380000  1
  Nd  Nd1  6  0.22840000  0.12260000  0.23750000  1
  Nd  Nd2  6  0.55150000  0.10600000  0.25370000  1
  Ge+  Ge3  3  0.02500000  0.82900000  0.50000000
  0.6666666666666666
  Sn+  Sn4  3  0.02500000  0.82900000  0.50000000
  0.3333333333333333
  C  C5  3  0.01440000  0.18500000  0.00000000  1
  C  C6  3  0.13600000  0.55600000  0.50000000  1
  C  C7  3  0.13800000  0.49000000  0.00000000  1
  C  C8  3  0.46000000  0.14900000  0.00000000  1
  C  C9  3  0.47000000  0.32200000  0.50000000  1
  O+  O10  6  0.07900000  0.83100000  0.38500000
  0.08333333333333333
  Se+  Se11  6  0.07900000  0.83100000  0.38500000
  0.6666666666666666
  S+  S12  6  0.07900000  0.83100000  0.38500000
  0.16666666666666666
  Po+  Po13  6  0.07900000  0.83100000  0.38500000
  0.08333333333333333
  O  O14  6  0.01200000  0.66600000  0.18000000  1
  O  O15  6  0.07300000  0.23100000  0.11500000  1
  O  O16  6  0.08400000  0.48800000  0.11500000  1
  O  O17  6  0.10000000  0.58100000  0.38500000  1
  O  O18  6  0.42800000  0.17800000  0.11500000  1
  O  O19  3  0.24400000  0.48900000  0.00000000  1
  Lv+  Lv20  3  0.19100000  0.10100000  0.00000000
  0.3333333333333333
  Se+  Se21  3  0.19100000  0.10100000  0.00000000
  0.16666666666666666
  Po+  Po22  3  0.19100000  0.10100000  0.00000000
  0.3333333333333333
  O+  O23  3  0.19100000  0.10100000  0.00000000
  0.16666666666666666
  O  O24  6  0.33900000  0.01900000  0.32100000  1
  O  O25  6  0.42200000  0.26500000  0.38500000  1
  O  O26  3  0.18300000  0.09600000  0.50000000  1
  O  O27  3  0.20200000  0.49900000  0.50000000  1
  O  O28  3  0.52900000  0.09500000  0.00000000  1
  O  O29  3  0.56700000  0.13900000  0.50000000  1
  O  O30  2  0.00000000  0.00000000  0.27200000  1
  O  O31  2  0.33333333  0.66666667  0.23000000  1
  O  O32  2  0.66666667  0.33333333  0.23000000  1
