# generated using pymatgen
data_K2Ni9.66666667As7Pd1.66666667Ds0.33333333Pt0.33333333
_symmetry_space_group_name_H-M  'P -6'
_cell_length_a   9.42900000
_cell_length_b   9.42900000
_cell_length_c   3.74330000
_cell_angle_alpha   90.00000000
_cell_angle_beta   90.00000000
_cell_angle_gamma   120.00000000
_symmetry_Int_Tables_number   174
_chemical_formula_structural
K2Ni9.66666667As7Pd1.66666667Ds0.33333333Pt0.33333333
_chemical_formula_sum
'K2 Ni9.66666667 As7 Pd1.66666667 Ds0.33333333 Pt0.33333333'
_cell_volume   288.21497195
_cell_formula_units_Z   1
loop_
 _symmetry_equiv_pos_site_id
 _symmetry_equiv_pos_as_xyz
  1  'x, y, z'
  2  '-x+y, -x, -z'
  3  '-y, x-y, z'
  4  'x, y, -z'
  5  '-x+y, -x, z'
  6  '-y, x-y, -z'
loop_
 _atom_site_type_symbol
 _atom_site_label
 _atom_site_symmetry_multiplicity
 _atom_site_fract_x
 _atom_site_fract_y
 _atom_site_fract_z
 _atom_site_occupancy
  K  K0  1  0.33333333  0.66666667  0.00000000  1.0
  K  K1  1  0.66666667  0.33333333  0.50000000  1.0
  Ni  Ni2  3  0.21362000  0.11956000  0.50000000  1.0
  Ni  Ni3  3  0.43376000  0.38147000  0.00000000  1.0
  Ni+  Ni4  3  0.04712000  0.42750000  0.50000000
  0.5555555555555556
  Pd+  Pd5  3  0.04712000  0.42750000  0.50000000
  0.4444444444444444
  Ni+  Ni6  3  0.12169000  0.27924000  0.00000000
  0.6666666666666666
  Ds+  Ds7  3  0.12169000  0.27924000  0.00000000
  0.1111111111111111
  Pd+  Pd8  3  0.12169000  0.27924000  0.00000000
  0.1111111111111111
  Pt+  Pt9  3  0.12169000  0.27924000  0.00000000
  0.1111111111111111
  As  As10  3  0.11634000  0.70546000  0.50000000  1.0
  As  As11  3  0.41124000  0.12296000  0.00000000  1.0
  As  As12  1  0.00000000  0.00000000  0.00000000  1.0
