# generated using pymatgen
data_Fl6Ge0.25Pb1.75C8
_symmetry_space_group_name_H-M  'C m m a'
_cell_length_a   4.57500000
_cell_length_b   5.30400000
_cell_length_c   5.63500000
_cell_angle_alpha   90.00000000
_cell_angle_beta   90.00000000
_cell_angle_gamma   90.00000000
_symmetry_Int_Tables_number   67
_chemical_formula_structural   Fl6Ge0.25Pb1.75C8
_chemical_formula_sum   'Fl6 Ge0.25 Pb1.75 C8'
_cell_volume   136.73778300
_cell_formula_units_Z   1
loop_
 _symmetry_equiv_pos_site_id
 _symmetry_equiv_pos_as_xyz
  1  'x, y, z'
  2  '-x, -y, -z'
  3  '-x+1/2, -y, z'
  4  'x+1/2, y, -z'
  5  'x, -y, -z'
  6  '-x, y, z'
  7  '-x+1/2, y, -z'
  8  'x+1/2, -y, z'
  9  'x+1/2, y+1/2, z'
  10  '-x+1/2, -y+1/2, -z'
  11  '-x, -y+1/2, z'
  12  'x, y+1/2, -z'
  13  'x+1/2, -y+1/2, -z'
  14  '-x+1/2, y+1/2, z'
  15  '-x, y+1/2, -z'
  16  'x, -y+1/2, z'
loop_
 _atom_site_type_symbol
 _atom_site_label
 _atom_site_symmetry_multiplicity
 _atom_site_fract_x
 _atom_site_fract_y
 _atom_site_fract_z
 _atom_site_occupancy
  Fl+  Fl0  8  0.00000000  0.11040000  0.23710000  0.75
  Ge+  Ge1  8  0.00000000  0.11040000  0.23710000  0.03125
  Pb+  Pb2  8  0.00000000  0.11040000  0.23710000  0.21875
  C  C3  8  0.25000000  0.00000000  0.12750000  1
