# generated using pymatgen
data_Fe0.22222222Os0.27777778Ru0.5Pt1
_symmetry_space_group_name_H-M  'P 4/m m m'
_cell_length_a   2.72350000
_cell_length_b   2.72350000
_cell_length_c   3.72000000
_cell_angle_alpha   90.00000000
_cell_angle_beta   90.00000000
_cell_angle_gamma   90.00000000
_symmetry_Int_Tables_number   123
_chemical_formula_structural   Fe0.22222222Os0.27777778Ru0.5Pt1
_chemical_formula_sum   'Fe0.22222222 Os0.27777778 Ru0.5 Pt1'
_cell_volume   27.59292237
_cell_formula_units_Z   1
loop_
 _symmetry_equiv_pos_site_id
 _symmetry_equiv_pos_as_xyz
  1  'x, y, z'
  2  '-x, -y, -z'
  3  '-y, x, z'
  4  'y, -x, -z'
  5  '-x, -y, z'
  6  'x, y, -z'
  7  'y, -x, z'
  8  '-y, x, -z'
  9  'x, -y, -z'
  10  '-x, y, z'
  11  '-y, -x, -z'
  12  'y, x, z'
  13  '-x, y, -z'
  14  'x, -y, z'
  15  'y, x, -z'
  16  '-y, -x, z'
loop_
 _atom_site_type_symbol
 _atom_site_label
 _atom_site_symmetry_multiplicity
 _atom_site_fract_x
 _atom_site_fract_y
 _atom_site_fract_z
 _atom_site_occupancy
  Os+  Os0  1  0.00000000  0.00000000  0.00000000
  0.2777777777777778
  Fe+  Fe1  1  0.00000000  0.00000000  0.00000000
  0.2222222222222222
  Ru+  Ru2  1  0.00000000  0.00000000  0.00000000  0.5
  Pt  Pt3  1  0.50000000  0.50000000  0.50000000  1
