# generated using pymatgen
data_Sm0.75Eu0.25Bi0.25As0.5P0.5At0.25Br0.75N0.75O4
_symmetry_space_group_name_H-M  'P 4/m m m'
_cell_length_a   3.87500000
_cell_length_b   3.87500000
_cell_length_c   9.54800000
_cell_angle_alpha   90.00000000
_cell_angle_beta   90.00000000
_cell_angle_gamma   90.00000000
_symmetry_Int_Tables_number   123
_chemical_formula_structural
Sm0.75Eu0.25Bi0.25As0.5P0.5At0.25Br0.75N0.75O4
_chemical_formula_sum
'Sm0.75 Eu0.25 Bi0.25 As0.5 P0.5 At0.25 Br0.75 N0.75 O4'
_cell_volume   143.36918750
_cell_formula_units_Z   1
loop_
 _symmetry_equiv_pos_site_id
 _symmetry_equiv_pos_as_xyz
  1  'x, y, z'
  2  '-x, -y, -z'
  3  '-y, x, z'
  4  'y, -x, -z'
  5  '-x, -y, z'
  6  'x, y, -z'
  7  'y, -x, z'
  8  '-y, x, -z'
  9  'x, -y, -z'
  10  '-x, y, z'
  11  '-y, -x, -z'
  12  'y, x, z'
  13  '-x, y, -z'
  14  'x, -y, z'
  15  'y, x, -z'
  16  '-y, -x, z'
loop_
 _atom_type_symbol
 _atom_type_oxidation_number
  Sm0+  0.0
  Eu0+  0.0
  Bi0+  0.0
  As0+  0.0
  P0+  0.0
  At0+  0.0
  Br0+  0.0
  N0+  0.0
  O0+  0.0
loop_
 _atom_site_type_symbol
 _atom_site_label
 _atom_site_symmetry_multiplicity
 _atom_site_fract_x
 _atom_site_fract_y
 _atom_site_fract_z
 _atom_site_occupancy
  Eu0+  Eu0  1  0.00000000  0.00000000  0.00000000  0.25
  Sm0+  Sm1  1  0.00000000  0.00000000  0.00000000  0.75
  Bi0+  Bi2  2  0.50000000  0.50000000  0.25710000  0.125
  As0+  As3  2  0.50000000  0.50000000  0.25710000  0.25
  P0+  P4  2  0.50000000  0.50000000  0.25710000  0.25
  N0+  N5  2  0.50000000  0.50000000  0.25710000  0.375
  At0+  At6  1  0.00000000  0.00000000  0.50000000  0.25
  Br0+  Br7  1  0.00000000  0.00000000  0.50000000  0.75
  O0+  O8  4  0.00000000  0.50000000  0.13800000  1.0
