# generated using pymatgen
data_Cs1.66666667K2.33333333Bi0.33333333Sb0.33333333As3Mc0.33333333N8
_symmetry_space_group_name_H-M  'I -4 2 d'
_cell_length_a   4.97210000
_cell_length_b   4.97210000
_cell_length_c   6.97600000
_cell_angle_alpha   90.00000000
_cell_angle_beta   90.00000000
_cell_angle_gamma   90.00000000
_symmetry_Int_Tables_number   122
_chemical_formula_structural
Cs1.66666667K2.33333333Bi0.33333333Sb0.33333333As3Mc0.33333333N8
_chemical_formula_sum
'Cs1.66666667 K2.33333333 Bi0.33333333 Sb0.33333333 As3 Mc0.33333333 N8'
_cell_volume   172.45912619
_cell_formula_units_Z   1
loop_
 _symmetry_equiv_pos_site_id
 _symmetry_equiv_pos_as_xyz
  1  'x, y, z'
  2  'y, -x, -z'
  3  '-x, -y, z'
  4  '-y, x, -z'
  5  'x+1/2, -y, -z+3/4'
  6  'y+1/2, x, z+3/4'
  7  '-x+1/2, y, -z+3/4'
  8  '-y+1/2, -x, z+3/4'
  9  'x+1/2, y+1/2, z+1/2'
  10  'y+1/2, -x+1/2, -z+1/2'
  11  '-x+1/2, -y+1/2, z+1/2'
  12  '-y+1/2, x+1/2, -z+1/2'
  13  'x, -y+1/2, -z+1/4'
  14  'y, x+1/2, z+1/4'
  15  '-x, y+1/2, -z+1/4'
  16  '-y, -x+1/2, z+1/4'
loop_
 _atom_type_symbol
 _atom_type_oxidation_number
  Cs0+  0.0
  K0+  0.0
  Bi0+  0.0
  Sb0+  0.0
  As0+  0.0
  N0+  0.0
  Mc0+  0.0
loop_
 _atom_site_type_symbol
 _atom_site_label
 _atom_site_symmetry_multiplicity
 _atom_site_fract_x
 _atom_site_fract_y
 _atom_site_fract_z
 _atom_site_occupancy
  Cs0+  Cs0  4  0.00000000  0.00000000  0.50000000
  0.4166666666666667
  K0+  K1  4  0.00000000  0.00000000  0.50000000  0.5833333333333334
  As0+  As2  4  0.00000000  0.00000000  0.00000000  0.75
  Sb0+  Sb3  4  0.00000000  0.00000000  0.00000000
  0.08333333333333333
  Bi0+  Bi4  4  0.00000000  0.00000000  0.00000000
  0.08333333333333333
  Mc0+  Mc5  4  0.00000000  0.00000000  0.00000000
  0.08333333333333333
  N0+  N6  8  0.12390000  0.25000000  0.12500000  1.0
