# generated using pymatgen
data_Rb4Po0.5P4Se0.5S14O1
_symmetry_space_group_name_H-M  'I -4 2 d'
_cell_length_a   7.61600000
_cell_length_b   7.61600000
_cell_length_c   7.29300000
_cell_angle_alpha   90.00000000
_cell_angle_beta   90.00000000
_cell_angle_gamma   90.00000000
_symmetry_Int_Tables_number   122
_chemical_formula_structural   Rb4Po0.5P4Se0.5S14O1
_chemical_formula_sum   'Rb4 Po0.5 P4 Se0.5 S14 O1'
_cell_volume   423.01920461
_cell_formula_units_Z   1
loop_
 _symmetry_equiv_pos_site_id
 _symmetry_equiv_pos_as_xyz
  1  'x, y, z'
  2  'y, -x, -z'
  3  '-x, -y, z'
  4  '-y, x, -z'
  5  'x+1/2, -y, -z+3/4'
  6  'y+1/2, x, z+3/4'
  7  '-x+1/2, y, -z+3/4'
  8  '-y+1/2, -x, z+3/4'
  9  'x+1/2, y+1/2, z+1/2'
  10  'y+1/2, -x+1/2, -z+1/2'
  11  '-x+1/2, -y+1/2, z+1/2'
  12  '-y+1/2, x+1/2, -z+1/2'
  13  'x, -y+1/2, -z+1/4'
  14  'y, x+1/2, z+1/4'
  15  '-x, y+1/2, -z+1/4'
  16  '-y, -x+1/2, z+1/4'
loop_
 _atom_type_symbol
 _atom_type_oxidation_number
  Rb0+  0.0
  Po0+  0.0
  P0+  0.0
  Se0+  0.0
  S0+  0.0
  O0+  0.0
loop_
 _atom_site_type_symbol
 _atom_site_label
 _atom_site_symmetry_multiplicity
 _atom_site_fract_x
 _atom_site_fract_y
 _atom_site_fract_z
 _atom_site_occupancy
  Rb0+  Rb0  4  0.00000000  0.00000000  0.50000000  1.0
  P0+  P1  4  0.00000000  0.00000000  0.00000000  1.0
  S0+  S2  16  0.08610000  0.85800000  0.87850000  0.875
  O0+  O3  16  0.08610000  0.85800000  0.87850000  0.0625
  Po0+  Po4  16  0.08610000  0.85800000  0.87850000  0.03125
  Se0+  Se5  16  0.08610000  0.85800000  0.87850000  0.03125
