# generated using pymatgen
data_Sr48Co32Bi16O117.5Lv1.5S1
_symmetry_space_group_name_H-M  'C 2 2 2'
_cell_length_a   23.47820000
_cell_length_b   23.48570000
_cell_length_c   5.51710000
_cell_angle_alpha   90.00000000
_cell_angle_beta   90.00000000
_cell_angle_gamma   90.00000000
_symmetry_Int_Tables_number   21
_chemical_formula_structural   Sr48Co32Bi16O117.5Lv1.5S1
_chemical_formula_sum   'Sr48 Co32 Bi16 O117.5 Lv1.5 S1'
_cell_volume   3042.13976312
_cell_formula_units_Z   1
loop_
 _symmetry_equiv_pos_site_id
 _symmetry_equiv_pos_as_xyz
  1  'x, y, z'
  2  '-x, -y, z'
  3  'x, -y, -z'
  4  '-x, y, -z'
  5  'x+1/2, y+1/2, z'
  6  '-x+1/2, -y+1/2, z'
  7  'x+1/2, -y+1/2, -z'
  8  '-x+1/2, y+1/2, -z'
loop_
 _atom_site_type_symbol
 _atom_site_label
 _atom_site_symmetry_multiplicity
 _atom_site_fract_x
 _atom_site_fract_y
 _atom_site_fract_z
 _atom_site_occupancy
  Sr  Sr0  8  0.05369000  0.32412000  0.24780000  1.0
  Sr  Sr1  8  0.05603000  0.16706000  0.24770000  1.0
  Sr  Sr2  8  0.16480000  0.33048000  0.75610000  1.0
  Sr  Sr3  8  0.16711000  0.44409000  0.24610000  1.0
  Sr  Sr4  8  0.16954000  0.16468000  0.75030000  1.0
  Sr  Sr5  8  0.17582000  0.05396000  0.24650000  1.0
  Co  Co6  8  0.05601000  0.24203000  0.75370000  1.0
  Co  Co7  8  0.16481000  0.24775000  0.24470000  1.0
  Co  Co8  8  0.24232000  0.44385000  0.74710000  1.0
  Co  Co9  8  0.24786000  0.33541000  0.26220000  1.0
  Bi  Bi10  8  0.05576400  0.43840600  0.73360000  1.0
  Bi  Bi11  8  0.06155100  0.05578000  0.76890000  1.0
  O  O12  8  0.05440000  0.35040000  0.75000000  1.0
  O  O13  8  0.05610000  0.14720000  0.71220000  1.0
  O  O14  8  0.06170000  0.42980000  0.35760000  1.0
  O  O15  8  0.11410000  0.24430000  0.00600000  1.0
  O  O16  8  0.11820000  0.24770000  0.53300000  1.0
  O  O17  8  0.14750000  0.44390000  0.78740000  1.0
  O  O18  8  0.15050000  0.05470000  0.74900000  1.0
  O  O19  8  0.16560000  0.33110000  0.23400000  1.0
  O  O20  8  0.16970000  0.16530000  0.25200000  1.0
  O  O21  8  0.24620000  0.38040000  0.52500000  1.0
  O  O22  8  0.24880000  0.38930000  0.00500000  1.0
  O  O23  4  0.00000000  0.24500000  0.00000000  1.0
  O  O24  4  0.00000000  0.24950000  0.50000000  1.0
  O  O25  4  0.24280000  0.50000000  0.50000000  1.0
  O  O26  4  0.24790000  0.50000000  0.00000000  1.0
  Lv+  Lv27  8  0.06910000  0.06230000  0.14270000  0.1875
  O+  O28  8  0.06910000  0.06230000  0.14270000  0.6875
  S+  S29  8  0.06910000  0.06230000  0.14270000  0.125
  O  O30  4  0.25000000  0.25000000  0.25000000  1.0
  O  O31  4  0.25000000  0.25000000  0.75000000  1.0
