# generated using pymatgen
data_Fr4.5Rb3.5Po3Te4H72C88S41I16Cl4
_symmetry_space_group_name_H-M  'C 2 2 2'
_cell_length_a   9.69860000
_cell_length_b   26.24290000
_cell_length_c   14.58030000
_cell_angle_alpha   90.00000000
_cell_angle_beta   90.00000000
_cell_angle_gamma   90.00000000
_symmetry_Int_Tables_number   21
_chemical_formula_structural   Fr4.5Rb3.5Po3Te4H72C88S41I16Cl4
_chemical_formula_sum   'Fr4.5 Rb3.5 Po3 Te4 H72 C88 S41 I16 Cl4'
_cell_volume   3710.96906114
_cell_formula_units_Z   1
loop_
 _symmetry_equiv_pos_site_id
 _symmetry_equiv_pos_as_xyz
  1  'x, y, z'
  2  '-x, -y, z'
  3  'x, -y, -z'
  4  '-x, y, -z'
  5  'x+1/2, y+1/2, z'
  6  '-x+1/2, -y+1/2, z'
  7  'x+1/2, -y+1/2, -z'
  8  '-x+1/2, y+1/2, -z'
loop_
 _atom_site_type_symbol
 _atom_site_label
 _atom_site_symmetry_multiplicity
 _atom_site_fract_x
 _atom_site_fract_y
 _atom_site_fract_z
 _atom_site_occupancy
  Fr+  Fr0  8  0.03190000  0.42870000  0.36090000  0.5625
  Rb+  Rb1  8  0.03190000  0.42870000  0.36090000  0.4375
  Po+  Po2  8  0.16830000  0.31547000  0.64740000  0.375
  Te+  Te3  8  0.16830000  0.31547000  0.64740000  0.5
  S+  S4  8  0.16830000  0.31547000  0.64740000  0.125
  H  H5  8  0.06060000  0.42730000  0.06930000  1.0
  H  H6  8  0.07390000  0.40090000  0.21970000  1.0
  H  H7  8  0.10230000  0.47460000  0.12880000  1.0
  H  H8  8  0.10500000  0.43370000  0.45640000  1.0
  H  H9  8  0.12140000  0.47700000  0.38300000  1.0
  H  H10  8  0.14390000  0.08300000  0.23930000  1.0
  H  H11  8  0.17930000  0.07570000  0.38960000  1.0
  H  H12  8  0.21420000  0.44590000  0.07080000  1.0
  H  H13  8  0.23650000  0.03470000  0.25230000  1.0
  C  C14  8  0.01680000  0.24730000  0.74740000  1.0
  C  C15  8  0.10700000  0.28760000  0.75150000  1.0
  C  C16  8  0.11280000  0.44090000  0.39200000  1.0
  C  C17  8  0.13200000  0.44190000  0.10660000  1.0
  C  C18  8  0.16110000  0.40700000  0.18750000  1.0
  C  C19  8  0.17190000  0.18260000  0.21060000  1.0
  C  C20  8  0.17230000  0.18350000  0.30160000  1.0
  C  C21  8  0.23540000  0.07160000  0.25660000  1.0
  C  C22  8  0.24030000  0.41400000  0.35340000  1.0
  C  C23  8  0.24470000  0.13260000  0.70420000  1.0
  C  C24  8  0.24550000  0.13610000  0.79550000  1.0
  S  S25  8  0.04250000  0.21839000  0.15300000  1.0
  S  S26  8  0.04380000  0.21977000  0.35390000  1.0
  S  S27  8  0.16920000  0.31517000  0.84890000  1.0
  S  S28  8  0.20920000  0.34606000  0.37290000  1.0
  S  S29  8  0.21410000  0.34657000  0.13190000  1.0
  I  I30  8  0.14754000  0.08190000  0.87980000  1.0
  I  I31  8  0.14841000  0.08087000  0.61893000  1.0
  Cl  Cl32  2  0.00000000  0.00000000  0.00000000  1.0
  Cl  Cl33  2  0.00000000  0.00000000  0.50000000  1.0
