# generated using pymatgen
data_Nb2Co3IrO9
_symmetry_space_group_name_H-M  'P -3 c 1'
_cell_length_a   5.17700000
_cell_length_b   5.17700000
_cell_length_c   14.16800000
_cell_angle_alpha   90.00000000
_cell_angle_beta   90.00000000
_cell_angle_gamma   120.00000000
_symmetry_Int_Tables_number   165
_chemical_formula_structural   Nb2Co3IrO9
_chemical_formula_sum   'Nb4 Co6 Ir2 O18'
_cell_volume   328.84823091
_cell_formula_units_Z   2
loop_
 _symmetry_equiv_pos_site_id
 _symmetry_equiv_pos_as_xyz
  1  'x, y, z'
  2  '-x, -y, -z'
  3  '-y, x-y, z'
  4  'y, -x+y, -z'
  5  '-x+y, -x, z'
  6  'x-y, x, -z'
  7  'y, x, -z+1/2'
  8  '-y, -x, z+1/2'
  9  'x-y, -y, -z+1/2'
  10  '-x+y, y, z+1/2'
  11  '-x, -x+y, -z+1/2'
  12  'x, x-y, z+1/2'
loop_
 _atom_type_symbol
 _atom_type_oxidation_number
  Nb5+  5.0
  Co2+  2.0
  Ir2+  2.0
  O2-  -2.0
loop_
 _atom_site_type_symbol
 _atom_site_label
 _atom_site_symmetry_multiplicity
 _atom_site_fract_x
 _atom_site_fract_y
 _atom_site_fract_z
 _atom_site_occupancy
  Nb5+  Nb0  4  0.00000000  0.00000000  0.14000000  1.0
  Co2+  Co1  4  0.33333333  0.66666667  0.30700000  1.0
  Ir2+  Ir2  4  0.33333333  0.66666667  0.02700000  0.5
  Co2+  Co3  4  0.33333333  0.66666667  0.02700000  0.5
  O2-  O4  12  0.03800000  0.33300000  0.91670000  1.0
  O2-  O5  6  0.00000000  0.30500000  0.25000000  1.0
