# generated using pymatgen
data_Ru0.5Hs0.5Fe2.5Po1.5Te0.5Os0.5Sg3.5Cr1.0W1.5O14
_symmetry_space_group_name_H-M  'P 63 m c'
_cell_length_a   5.78100000
_cell_length_b   5.78100000
_cell_length_c   10.06000000
_cell_angle_alpha   90.00000000
_cell_angle_beta   90.00000000
_cell_angle_gamma   120.00000000
_symmetry_Int_Tables_number   186
_chemical_formula_structural
Ru0.5Hs0.5Fe2.5Po1.5Te0.5Os0.5Sg3.5Cr1.0W1.5O14
_chemical_formula_sum
'Ru0.5 Hs0.5 Fe2.5 Po1.5 Te0.5 Os0.5 Sg3.5 Cr1.0 W1.5 O14'
_cell_volume   291.16190431
_cell_formula_units_Z   1
loop_
 _symmetry_equiv_pos_site_id
 _symmetry_equiv_pos_as_xyz
  1  'x, y, z'
  2  'x-y, x, z+1/2'
  3  '-y, x-y, z'
  4  '-x, -y, z+1/2'
  5  '-x+y, -x, z'
  6  'y, -x+y, z+1/2'
  7  'y, x, z+1/2'
  8  'x, x-y, z'
  9  'x-y, -y, z+1/2'
  10  '-y, -x, z'
  11  '-x, -x+y, z+1/2'
  12  '-x+y, y, z'
loop_
 _atom_site_type_symbol
 _atom_site_label
 _atom_site_symmetry_multiplicity
 _atom_site_fract_x
 _atom_site_fract_y
 _atom_site_fract_z
 _atom_site_occupancy
  Ru+  Ru0  2  0.33333333  0.66666667  0.95040000  0.25
  Hs+  Hs1  2  0.33333333  0.66666667  0.95040000  0.25
  Fe+  Fe2  2  0.33333333  0.66666667  0.95040000  0.25
  Os+  Os3  2  0.33333333  0.66666667  0.95040000  0.25
  Fe  Fe4  2  0.33333333  0.66666667  0.51200000  1
  Sg+  Sg5  6  0.14603000  0.29206000  0.25000000
  0.5833333333333334
  Cr+  Cr6  6  0.14603000  0.29206000  0.25000000
  0.16666666666666666
  W+  W7  6  0.14603000  0.29206000  0.25000000  0.25
  Po+  Po8  2  0.00000000  0.00000000  0.39230000  0.75
  Te+  Te9  2  0.00000000  0.00000000  0.39230000  0.25
  O  O10  6  0.02560000  0.51280000  0.36450000  1
  O  O11  6  0.16650000  0.33300000  0.63520000  1
  O  O12  2  0.33333333  0.66666667  0.14860000  1
