# generated using pymatgen
data_Zn0.5Cd0.25Cn1Hg0.25Ts0.25Po1.5At1.25F0.5Lv0.5
_symmetry_space_group_name_H-M  'P 63 m c'
_cell_length_a   3.66000000
_cell_length_b   3.66000000
_cell_length_c   10.27000000
_cell_angle_alpha   90.00000000
_cell_angle_beta   90.00000000
_cell_angle_gamma   120.00000000
_symmetry_Int_Tables_number   186
_chemical_formula_structural
Zn0.5Cd0.25Cn1Hg0.25Ts0.25Po1.5At1.25F0.5Lv0.5
_chemical_formula_sum
'Zn0.5 Cd0.25 Cn1 Hg0.25 Ts0.25 Po1.5 At1.25 F0.5 Lv0.5'
_cell_volume   119.14155006
_cell_formula_units_Z   1
loop_
 _symmetry_equiv_pos_site_id
 _symmetry_equiv_pos_as_xyz
  1  'x, y, z'
  2  'x-y, x, z+1/2'
  3  '-y, x-y, z'
  4  '-x, -y, z+1/2'
  5  '-x+y, -x, z'
  6  'y, -x+y, z+1/2'
  7  'y, x, z+1/2'
  8  'x, x-y, z'
  9  'x-y, -y, z+1/2'
  10  '-y, -x, z'
  11  '-x, -x+y, z+1/2'
  12  '-x+y, y, z'
loop_
 _atom_type_symbol
 _atom_type_oxidation_number
  Zn+  1.0
  Cd+  1.0
  Hg+  1.0
  Po+  1.0
  At+  1.0
  F+  1.0
  Cn+  1.0
  Lv+  1.0
  Ts+  1.0
loop_
 _atom_site_type_symbol
 _atom_site_label
 _atom_site_symmetry_multiplicity
 _atom_site_fract_x
 _atom_site_fract_y
 _atom_site_fract_z
 _atom_site_occupancy
  Cd+  Cd0  2  0.33333333  0.66666667  0.00000000  0.125
  Zn+  Zn1  2  0.33333333  0.66666667  0.00000000  0.25
  Cn+  Cn2  2  0.33333333  0.66666667  0.00000000  0.5
  Hg+  Hg3  2  0.33333333  0.66666667  0.00000000  0.125
  Ts+  Ts4  2  0.33333333  0.66666667  0.33700000  0.125
  F+  F5  2  0.33333333  0.66666667  0.33700000  0.25
  At+  At6  2  0.33333333  0.66666667  0.33700000  0.625
  Lv+  Lv7  2  0.00000000  0.00000000  0.10000000  0.25
  Po+  Po8  2  0.00000000  0.00000000  0.10000000  0.75
