# generated using pymatgen
data_K4Si2At2.66666667I3Br0.33333333F6
_symmetry_space_group_name_H-M  'P 63 m c'
_cell_length_a   5.64610000
_cell_length_b   5.64610000
_cell_length_c   9.23220000
_cell_angle_alpha   90.00000000
_cell_angle_beta   90.00000000
_cell_angle_gamma   120.00000000
_symmetry_Int_Tables_number   186
_chemical_formula_structural   K4Si2At2.66666667I3Br0.33333333F6
_chemical_formula_sum   'K4 Si2 At2.66666667 I3 Br0.33333333 F6'
_cell_volume   254.87836204
_cell_formula_units_Z   1
loop_
 _symmetry_equiv_pos_site_id
 _symmetry_equiv_pos_as_xyz
  1  'x, y, z'
  2  'x-y, x, z+1/2'
  3  '-y, x-y, z'
  4  '-x, -y, z+1/2'
  5  '-x+y, -x, z'
  6  'y, -x+y, z+1/2'
  7  'y, x, z+1/2'
  8  'x, x-y, z'
  9  'x-y, -y, z+1/2'
  10  '-y, -x, z'
  11  '-x, -x+y, z+1/2'
  12  '-x+y, y, z'
loop_
 _atom_site_type_symbol
 _atom_site_label
 _atom_site_symmetry_multiplicity
 _atom_site_fract_x
 _atom_site_fract_y
 _atom_site_fract_z
 _atom_site_occupancy
  K  K0  2  0.00000000  0.00000000  0.31199000  1
  K  K1  2  0.33333333  0.66666667  0.59275000  1
  Si  Si2  2  0.33333333  0.66666667  0.97559000  1
  Br+  Br3  6  0.19125000  0.38249000  0.07798000
  0.05555555555555555
  At+  At4  6  0.19125000  0.38249000  0.07798000
  0.4444444444444444
  I+  I5  6  0.19125000  0.38249000  0.07798000  0.5
  F  F6  6  0.05287000  0.52644000  0.86889000  1
