# generated using pymatgen
data_Cs5.33333333Li0.66666667Zn3Ge3H24Pb3C30N12O12
_symmetry_space_group_name_H-M  'P 62'
_cell_length_a   15.46500000
_cell_length_b   15.46500000
_cell_length_c   6.35970000
_cell_angle_alpha   90.00000000
_cell_angle_beta   90.00000000
_cell_angle_gamma   120.00000000
_symmetry_Int_Tables_number   171
_chemical_formula_structural
Cs5.33333333Li0.66666667Zn3Ge3H24Pb3C30N12O12
_chemical_formula_sum
'Cs5.33333333 Li0.66666667 Zn3 Ge3 H24 Pb3 C30 N12 O12'
_cell_volume   1317.24667182
_cell_formula_units_Z   1
loop_
 _symmetry_equiv_pos_site_id
 _symmetry_equiv_pos_as_xyz
  1  'x, y, z'
  2  'x-y, x, z+1/3'
  3  '-y, x-y, z+2/3'
  4  '-x, -y, z'
  5  '-x+y, -x, z+1/3'
  6  'y, -x+y, z+2/3'
loop_
 _atom_site_type_symbol
 _atom_site_label
 _atom_site_symmetry_multiplicity
 _atom_site_fract_x
 _atom_site_fract_y
 _atom_site_fract_z
 _atom_site_occupancy
  Cs+  Cs0  6  0.00494000  0.40856400  0.21985500
  0.8888888888888888
  Li+  Li1  6  0.00494000  0.40856400  0.21985500
  0.1111111111111111
  Zn  Zn2  3  0.00000000  0.50000000  0.81397333  1.0
  Ge+  Ge3  6  0.24989000  0.73819000  0.38843333  0.5
  Pb+  Pb4  6  0.24989000  0.73819000  0.38843333  0.5
  H  H5  6  0.03853900  0.35018000  0.52968200  1.0
  H  H6  6  0.13938700  0.36566600  0.58003000  1.0
  H  H7  6  0.21131400  0.67282300  0.34125433  1.0
  H  H8  6  0.21347100  0.55541400  0.80553400  1.0
  C  C9  6  0.07109000  0.43520000  0.17820000  1.0
  C  C10  6  0.13560000  0.42300000  0.31200000  1.0
  C  C11  6  0.14230000  0.68820000  0.70803333  1.0
  C  C12  6  0.19342000  0.52150000  0.93290000  1.0
  C  C13  6  0.22807000  0.76517000  0.58003333  1.0
  N  N14  6  0.09808000  0.48235000  0.99590000  1.0
  N  N15  6  0.10019000  0.37360000  0.49640000  1.0
  O  O16  6  0.08654000  0.60499000  0.61623333  1.0
  O  O17  6  0.13159000  0.70489000  0.89083333  1.0
