# generated using pymatgen
data_Si19Sn1.33333333C3.66666667O48
_symmetry_space_group_name_H-M  'P 62'
_cell_length_a   17.39000000
_cell_length_b   17.39000000
_cell_length_c   13.03600000
_cell_angle_alpha   90.00000000
_cell_angle_beta   90.00000000
_cell_angle_gamma   120.00000000
_symmetry_Int_Tables_number   171
_chemical_formula_structural   Si19Sn1.33333333C3.66666667O48
_chemical_formula_sum   'Si19 Sn1.33333333 C3.66666667 O48'
_cell_volume   3414.08356935
_cell_formula_units_Z   1
loop_
 _symmetry_equiv_pos_site_id
 _symmetry_equiv_pos_as_xyz
  1  'x, y, z'
  2  'x-y, x, z+1/3'
  3  '-y, x-y, z+2/3'
  4  '-x, -y, z'
  5  '-x+y, -x, z+1/3'
  6  'y, -x+y, z+2/3'
loop_
 _atom_type_symbol
 _atom_type_oxidation_number
  Si0+  0.0
  Sn0+  0.0
  C0+  0.0
  O0+  0.0
loop_
 _atom_site_type_symbol
 _atom_site_label
 _atom_site_symmetry_multiplicity
 _atom_site_fract_x
 _atom_site_fract_y
 _atom_site_fract_z
 _atom_site_occupancy
  Si0+  Si0  6  0.00000000  0.38000000  0.33333333  1.0
  Si0+  Si1  6  0.12600000  0.56300000  0.33333333  1.0
  Si0+  Si2  6  0.16300000  0.44000000  0.21600000  1.0
  C0+  C3  6  0.16400000  0.72400000  0.45133333  0.6111111111111112
  Si0+  Si4  6  0.16400000  0.72400000  0.45133333
  0.16666666666666666
  Sn0+  Sn5  6  0.16400000  0.72400000  0.45133333
  0.2222222222222222
  O0+  O6  6  0.06500000  0.47000000  0.39933333  1.0
  O0+  O7  6  0.06600000  0.70400000  0.40733333  1.0
  O0+  O8  6  0.06600000  0.36200000  0.26000000  1.0
  O0+  O9  6  0.06600000  0.59500000  0.26800000  1.0
  O0+  O10  6  0.17800000  0.43200000  0.09100000  1.0
  O0+  O11  6  0.17800000  0.74600000  0.57633333  1.0
  O0+  O12  6  0.18100000  0.53800000  0.25200000  1.0
  O0+  O13  6  0.18100000  0.64300000  0.41533333  1.0
