# generated using pymatgen
data_Ga2RgAgPoTe2P4Se8S
_symmetry_space_group_name_H-M  'P -3 1 c'
_cell_length_a   6.37500000
_cell_length_b   6.37500000
_cell_length_c   13.32000000
_cell_angle_alpha   90.00000000
_cell_angle_beta   90.00000000
_cell_angle_gamma   120.00000000
_symmetry_Int_Tables_number   163
_chemical_formula_structural   Ga2RgAgPoTe2P4Se8S
_chemical_formula_sum   'Ga2 Rg1 Ag1 Po1 Te2 P4 Se8 S1'
_cell_volume   468.80823816
_cell_formula_units_Z   1
loop_
 _symmetry_equiv_pos_site_id
 _symmetry_equiv_pos_as_xyz
  1  'x, y, z'
  2  '-x, -y, -z'
  3  '-y, x-y, z'
  4  'y, -x+y, -z'
  5  '-x+y, -x, z'
  6  'x-y, x, -z'
  7  '-y, -x, -z+1/2'
  8  'y, x, z+1/2'
  9  '-x+y, y, -z+1/2'
  10  'x-y, -y, z+1/2'
  11  'x, x-y, -z+1/2'
  12  '-x, -x+y, z+1/2'
loop_
 _atom_type_symbol
 _atom_type_oxidation_number
  Ga0+  0.0
  Ag0+  0.0
  Po0+  0.0
  Te0+  0.0
  P0+  0.0
  Se0+  0.0
  S0+  0.0
  Rg0+  0.0
loop_
 _atom_site_type_symbol
 _atom_site_label
 _atom_site_symmetry_multiplicity
 _atom_site_fract_x
 _atom_site_fract_y
 _atom_site_fract_z
 _atom_site_occupancy
  Ga0+  Ga0  2  0.00000000  0.00000000  0.25000000  1.0
  Rg0+  Rg1  2  0.33333333  0.66666667  0.75000000  0.5
  Ag0+  Ag2  2  0.33333333  0.66666667  0.75000000  0.5
  P0+  P3  4  0.33333333  0.66666667  0.17180000  1.0
  S0+  S4  12  0.02030000  0.32180000  0.37860000
  0.08333333333333333
  Te0+  Te5  12  0.02030000  0.32180000  0.37860000
  0.16666666666666666
  Se0+  Se6  12  0.02030000  0.32180000  0.37860000
  0.6666666666666666
  Po0+  Po7  12  0.02030000  0.32180000  0.37860000
  0.08333333333333333
