# generated using pymatgen
data_Sc10Co8Si16Sn1.25Pb2.25Fl0.25Ge0.25
_symmetry_space_group_name_H-M  'P 4/m b m'
_cell_length_a   12.01000000
_cell_length_b   12.01000000
_cell_length_c   3.93600000
_cell_angle_alpha   90.00000000
_cell_angle_beta   90.00000000
_cell_angle_gamma   90.00000000
_symmetry_Int_Tables_number   127
_chemical_formula_structural   Sc10Co8Si16Sn1.25Pb2.25Fl0.25Ge0.25
_chemical_formula_sum   'Sc10 Co8 Si16 Sn1.25 Pb2.25 Fl0.25 Ge0.25'
_cell_volume   567.72903360
_cell_formula_units_Z   1
loop_
 _symmetry_equiv_pos_site_id
 _symmetry_equiv_pos_as_xyz
  1  'x, y, z'
  2  '-x, -y, -z'
  3  '-y, x, z'
  4  'y, -x, -z'
  5  '-x, -y, z'
  6  'x, y, -z'
  7  'y, -x, z'
  8  '-y, x, -z'
  9  'x+1/2, -y+1/2, -z'
  10  '-x+1/2, y+1/2, z'
  11  '-y+1/2, -x+1/2, -z'
  12  'y+1/2, x+1/2, z'
  13  '-x+1/2, y+1/2, -z'
  14  'x+1/2, -y+1/2, z'
  15  'y+1/2, x+1/2, -z'
  16  '-y+1/2, -x+1/2, z'
loop_
 _atom_site_type_symbol
 _atom_site_label
 _atom_site_symmetry_multiplicity
 _atom_site_fract_x
 _atom_site_fract_y
 _atom_site_fract_z
 _atom_site_occupancy
  Sc  Sc0  4  0.11180000  0.38820000  0.50000000  1.0
  Sc  Sc1  4  0.17560000  0.67560000  0.50000000  1.0
  Sc  Sc2  2  0.00000000  0.00000000  0.00000000  1.0
  Co  Co3  8  0.02400000  0.75400000  0.00000000  1.0
  Si  Si4  8  0.00310000  0.83620000  0.50000000  1.0
  Si  Si5  8  0.15750000  0.19850000  0.00000000  1.0
  Sn+  Sn6  4  0.06790000  0.56790000  0.00000000  0.3125
  Pb+  Pb7  4  0.06790000  0.56790000  0.00000000  0.5625
  Fl+  Fl8  4  0.06790000  0.56790000  0.00000000  0.0625
  Ge+  Ge9  4  0.06790000  0.56790000  0.00000000  0.0625
