# generated using pymatgen
data_K6Po1Te1Se7.66666667S2O26.33333333F2
_symmetry_space_group_name_H-M  'P 4/m b m'
_cell_length_a   12.58200000
_cell_length_b   12.58200000
_cell_length_c   3.93700000
_cell_angle_alpha   90.00000000
_cell_angle_beta   90.00000000
_cell_angle_gamma   90.00000000
_symmetry_Int_Tables_number   127
_chemical_formula_structural   K6Po1Te1Se7.66666667S2O26.33333333F2
_chemical_formula_sum   'K6 Po1 Te1 Se7.66666667 S2 O26.33333333 F2'
_cell_volume   623.25357239
_cell_formula_units_Z   1
loop_
 _symmetry_equiv_pos_site_id
 _symmetry_equiv_pos_as_xyz
  1  'x, y, z'
  2  '-x, -y, -z'
  3  '-y, x, z'
  4  'y, -x, -z'
  5  '-x, -y, z'
  6  'x, y, -z'
  7  'y, -x, z'
  8  '-y, x, -z'
  9  'x+1/2, -y+1/2, -z'
  10  '-x+1/2, y+1/2, z'
  11  '-y+1/2, -x+1/2, -z'
  12  'y+1/2, x+1/2, z'
  13  '-x+1/2, y+1/2, -z'
  14  'x+1/2, -y+1/2, z'
  15  'y+1/2, x+1/2, -z'
  16  '-y+1/2, -x+1/2, z'
loop_
 _atom_site_type_symbol
 _atom_site_label
 _atom_site_symmetry_multiplicity
 _atom_site_fract_x
 _atom_site_fract_y
 _atom_site_fract_z
 _atom_site_occupancy
  K  K0  4  0.17310000  0.67310000  0.00000000  1
  K  K1  2  0.00000000  0.00000000  0.00000000  1
  Se+  Se2  8  0.07269000  0.21451000  0.50000000
  0.9583333333333334
  Te+  Te3  8  0.07269000  0.21451000  0.50000000
  0.041666666666666664
  S  S4  2  0.00000000  0.50000000  0.50000000  1
  Te+  Te5  8  0.00190000  0.65500000  0.50000000
  0.08333333333333333
  Po+  Po6  8  0.00190000  0.65500000  0.50000000  0.125
  O+  O7  8  0.00190000  0.65500000  0.50000000  0.7916666666666666
  O  O8  8  0.07010000  0.85900000  0.50000000  1
  O  O9  8  0.07700000  0.20710000  0.00000000  1
  O  O10  4  0.21380000  0.28620000  0.50000000  1
  F  F11  2  0.00000000  0.50000000  0.00000000  1
