# generated using pymatgen
data_Cs7.5K0.5Mn4Si2H72Pb5C56.5Fl0.5N8O24
_symmetry_space_group_name_H-M  'C c c 2'
_cell_length_a   15.52800000
_cell_length_b   17.99300000
_cell_length_c   6.59460000
_cell_angle_alpha   90.00000000
_cell_angle_beta   90.00000000
_cell_angle_gamma   90.00000000
_symmetry_Int_Tables_number   37
_chemical_formula_structural   Cs7.5K0.5Mn4Si2H72Pb5C56.5Fl0.5N8O24
_chemical_formula_sum
'Cs7.5 K0.5 Mn4 Si2 H72 Pb5 C56.5 Fl0.5 N8 O24'
_cell_volume   1842.50027176
_cell_formula_units_Z   1
loop_
 _symmetry_equiv_pos_site_id
 _symmetry_equiv_pos_as_xyz
  1  'x, y, z'
  2  '-x, -y, z'
  3  '-x, y, z+1/2'
  4  'x, -y, z+1/2'
  5  'x+1/2, y+1/2, z'
  6  '-x+1/2, -y+1/2, z'
  7  '-x+1/2, y+1/2, z+1/2'
  8  'x+1/2, -y+1/2, z+1/2'
loop_
 _atom_site_type_symbol
 _atom_site_label
 _atom_site_symmetry_multiplicity
 _atom_site_fract_x
 _atom_site_fract_y
 _atom_site_fract_z
 _atom_site_occupancy
  K+  K0  8  0.16400000  0.31440000  0.08330000  0.0625
  Cs+  Cs1  8  0.16400000  0.31440000  0.08330000  0.9375
  Mn  Mn2  4  0.00000000  0.50000000  0.41989000  1.0
  H  H3  8  0.01750000  0.14020000  0.76810000  1.0
  H  H4  8  0.06040000  0.34520000  0.26790000  1.0
  H  H5  8  0.06860000  0.05310000  0.98920000  1.0
  H  H6  8  0.08620000  0.25950000  0.05950000  1.0
  H  H7  8  0.11110000  0.20170000  0.56530000  1.0
  H  H8  8  0.11790000  0.35570000  0.60200000  1.0
  H  H9  8  0.16410000  0.23830000  0.19910000  1.0
  H  H10  8  0.21230000  0.02460000  0.99570000  1.0
  H  H11  8  0.24650000  0.33250000  0.55230000  1.0
  C  C12  8  0.07600000  0.12910000  0.77210000  1.0
  C  C13  8  0.10630000  0.07740000  0.90170000  1.0
  C  C14  8  0.12870000  0.27840000  0.15170000  1.0
  C  C15  8  0.13100000  0.16410000  0.64970000  1.0
  C  C16  8  0.15830000  0.42885000  0.78630000  1.0
  Pb+  Pb17  8  0.24948000  0.09448000  0.77940000  0.625
  Si+  Si18  8  0.24948000  0.09448000  0.77940000  0.25
  C+  C19  8  0.24948000  0.09448000  0.77940000  0.0625
  Fl+  Fl20  8  0.24948000  0.09448000  0.77940000  0.0625
  C  C21  8  0.19240000  0.06030000  0.90520000  1.0
  C  C22  8  0.21710000  0.14520000  0.64640000  1.0
  N  N23  8  0.10283000  0.39393000  0.67190000  1.0
  O  O24  8  0.01820000  0.42045000  0.66620000  1.0
  O  O25  8  0.08980000  0.31033000  0.30810000  1.0
  O  O26  8  0.13513000  0.47995000  0.90400000  1.0
