# generated using pymatgen
data_Fe4Si4GeBi6B8SbPH88C80Fl3(SN)16
_symmetry_space_group_name_H-M  'C c c 2'
_cell_length_a   14.18180000
_cell_length_b   20.15000000
_cell_length_c   10.72500000
_cell_angle_alpha   90.00000000
_cell_angle_beta   90.00000000
_cell_angle_gamma   90.00000000
_symmetry_Int_Tables_number   37
_chemical_formula_structural   Fe4Si4GeBi6B8SbPH88C80Fl3(SN)16
_chemical_formula_sum
'Fe4 Si4 Ge1 Bi6 B8 Sb1 P1 H88 C80 Fl3 S16 N16'
_cell_volume   3064.81107075
_cell_formula_units_Z   1
loop_
 _symmetry_equiv_pos_site_id
 _symmetry_equiv_pos_as_xyz
  1  'x, y, z'
  2  '-x, -y, z'
  3  '-x, y, z+1/2'
  4  'x, -y, z+1/2'
  5  'x+1/2, y+1/2, z'
  6  '-x+1/2, -y+1/2, z'
  7  '-x+1/2, y+1/2, z+1/2'
  8  'x+1/2, -y+1/2, z+1/2'
loop_
 _atom_site_type_symbol
 _atom_site_label
 _atom_site_symmetry_multiplicity
 _atom_site_fract_x
 _atom_site_fract_y
 _atom_site_fract_z
 _atom_site_occupancy
  Fe  Fe0  4  0.25000000  0.25000000  0.07100000  1.0
  B  B1  8  0.08080000  0.21570000  0.56170000  1.0
  Sb+  Sb2  8  0.11480000  0.22270000  0.07140000  0.125
  P+  P3  8  0.11480000  0.22270000  0.07140000  0.125
  Bi+  Bi4  8  0.11480000  0.22270000  0.07140000  0.75
  H  H5  8  0.03940800  0.41297400  0.28549600  1.0
  H  H6  8  0.08965500  0.34258800  0.13300600  1.0
  H  H7  8  0.09932200  0.21542100  0.47564500  1.0
  H  H8  8  0.10458300  0.25504400  0.60124600  1.0
  H  H9  8  0.10590600  0.17725600  0.60272100  1.0
  H  H10  8  0.12912800  0.34357300  0.66536500  1.0
  H  H11  8  0.13974200  0.27100700  0.83188900  1.0
  H  H12  8  0.17594300  0.18888000  0.30954500  1.0
  H  H13  8  0.19004200  0.11251700  0.01150800  1.0
  H  H14  8  0.20335000  0.03093100  0.86163400  1.0
  H  H15  8  0.22057400  0.12340800  0.47250700  1.0
  C  C16  8  0.03600000  0.21480000  0.07130000  1.0
  C  C17  8  0.09750000  0.39190000  0.29330000  1.0
  C  C18  8  0.12890000  0.35010000  0.20110000  1.0
  C  C19  8  0.15210000  0.40250000  0.39650000  1.0
  C  C20  8  0.17320000  0.31060000  0.83550000  1.0
  Si+  Si21  8  0.24010000  0.37100000  0.40400000  0.5
  Ge+  Ge22  8  0.24010000  0.37100000  0.40400000  0.125
  Fl+  Fl23  8  0.24010000  0.37100000  0.40400000  0.375
  C  C24  8  0.16510000  0.35410000  0.73510000  1.0
  C  C25  8  0.21430000  0.41520000  0.74400000  1.0
  C  C26  8  0.22790000  0.12010000  0.94220000  1.0
  C  C27  8  0.23360000  0.07150000  0.85130000  1.0
  C  C28  8  0.23470000  0.16850000  0.30550000  1.0
  S  S29  8  0.10630000  0.45558000  0.51350000  1.0
  S  S30  8  0.21590000  0.47800000  0.62730000  1.0
  N  N31  8  0.21260000  0.31940000  0.20340000  1.0
  N  N32  8  0.22440000  0.32170000  0.93390000  1.0
