# generated using pymatgen
data_Mg6Si4Te0.33333333H8Se0.33333333S6.5O10Lv0.83333333
_symmetry_space_group_name_H-M  'P 63 c m'
_cell_length_a   5.31800000
_cell_length_b   5.31800000
_cell_length_c   14.54100000
_cell_angle_alpha   90.00000000
_cell_angle_beta   90.00000000
_cell_angle_gamma   120.00000000
_symmetry_Int_Tables_number   185
_chemical_formula_structural
Mg6Si4Te0.33333333H8Se0.33333333S6.5O10Lv0.83333333
_chemical_formula_sum
'Mg6 Si4 Te0.33333333 H8 Se0.33333333 S6.5 O10 Lv0.83333333'
_cell_volume   356.14067060
_cell_formula_units_Z   1
loop_
 _symmetry_equiv_pos_site_id
 _symmetry_equiv_pos_as_xyz
  1  'x, y, z'
  2  'x-y, x, z+1/2'
  3  '-y, x-y, z'
  4  '-x, -y, z+1/2'
  5  '-x+y, -x, z'
  6  'y, -x+y, z+1/2'
  7  'y, x, z'
  8  'x, x-y, z+1/2'
  9  'x-y, -y, z'
  10  '-y, -x, z+1/2'
  11  '-x, -x+y, z'
  12  '-x+y, y, z+1/2'
loop_
 _atom_site_type_symbol
 _atom_site_label
 _atom_site_symmetry_multiplicity
 _atom_site_fract_x
 _atom_site_fract_y
 _atom_site_fract_z
 _atom_site_occupancy
  Mg  Mg0  6  0.00000000  0.33240000  0.22660000  1
  Si  Si1  4  0.33333333  0.66666667  0.03600000  1
  H  H2  6  0.00000000  0.38000000  0.86500000  1
  H  H3  2  0.00000000  0.00000000  0.08100000  1
  Se+  Se4  6  0.00000000  0.48380000  0.99530000
  0.05555555555555555
  S+  S5  6  0.00000000  0.48380000  0.99530000  0.9444444444444444
  O  O6  6  0.00000000  0.33430000  0.79340000  1
  O  O7  4  0.33333333  0.66666667  0.14620000  1
  Te+  Te8  2  0.00000000  0.00000000  0.15020000
  0.16666666666666666
  Lv+  Lv9  2  0.00000000  0.00000000  0.15020000
  0.4166666666666667
  S+  S10  2  0.00000000  0.00000000  0.15020000  0.4166666666666667
