# generated using pymatgen
data_Y6Mn6Po1.5O13.5Lv0.5Se2.5
_symmetry_space_group_name_H-M  'P 63 c m'
_cell_length_a   6.18081000
_cell_length_b   6.18081000
_cell_length_c   11.37786000
_cell_angle_alpha   90.00000000
_cell_angle_beta   90.00000000
_cell_angle_gamma   120.00000000
_symmetry_Int_Tables_number   185
_chemical_formula_structural   Y6Mn6Po1.5O13.5Lv0.5Se2.5
_chemical_formula_sum   'Y6 Mn6 Po1.5 O13.5 Lv0.5 Se2.5'
_cell_volume   376.42807279
_cell_formula_units_Z   1
loop_
 _symmetry_equiv_pos_site_id
 _symmetry_equiv_pos_as_xyz
  1  'x, y, z'
  2  'x-y, x, z+1/2'
  3  '-y, x-y, z'
  4  '-x, -y, z+1/2'
  5  '-x+y, -x, z'
  6  'y, -x+y, z+1/2'
  7  'y, x, z'
  8  'x, x-y, z+1/2'
  9  'x-y, -y, z'
  10  '-y, -x, z+1/2'
  11  '-x, -x+y, z'
  12  '-x+y, y, z+1/2'
loop_
 _atom_site_type_symbol
 _atom_site_label
 _atom_site_symmetry_multiplicity
 _atom_site_fract_x
 _atom_site_fract_y
 _atom_site_fract_z
 _atom_site_occupancy
  Y  Y0  4  0.33333333  0.66666667  0.23440000  1.0
  Y  Y1  2  0.00000000  0.00000000  0.27040000  1.0
  Mn  Mn2  6  0.00000000  0.32600000  0.00000000  1.0
  O  O3  6  0.00000000  0.31280000  0.15890000  1.0
  Po+  Po4  6  0.00000000  0.35590000  0.83230000  0.25
  Lv+  Lv5  6  0.00000000  0.35590000  0.83230000
  0.08333333333333333
  Se+  Se6  6  0.00000000  0.35590000  0.83230000
  0.4166666666666667
  O+  O7  6  0.00000000  0.35590000  0.83230000  0.25
  O  O8  4  0.33333333  0.66666667  0.01220000  1.0
  O  O9  2  0.00000000  0.00000000  0.47810000  1.0
