# generated using pymatgen
data_Cs6.22222222K1.66666667Rb0.11111111In12
_symmetry_space_group_name_H-M  'I -4 m 2'
_cell_length_a   6.91000000
_cell_length_b   6.91000000
_cell_length_c   16.51200000
_cell_angle_alpha   90.00000000
_cell_angle_beta   90.00000000
_cell_angle_gamma   90.00000000
_symmetry_Int_Tables_number   119
_chemical_formula_structural
Cs6.22222222K1.66666667Rb0.11111111In12
_chemical_formula_sum   'Cs6.22222222 K1.66666667 Rb0.11111111 In12'
_cell_volume   788.41662720
_cell_formula_units_Z   1
loop_
 _symmetry_equiv_pos_site_id
 _symmetry_equiv_pos_as_xyz
  1  'x, y, z'
  2  'y, -x, -z'
  3  '-x, -y, z'
  4  '-y, x, -z'
  5  '-x, y, z'
  6  '-y, -x, -z'
  7  'x, -y, z'
  8  'y, x, -z'
  9  'x+1/2, y+1/2, z+1/2'
  10  'y+1/2, -x+1/2, -z+1/2'
  11  '-x+1/2, -y+1/2, z+1/2'
  12  '-y+1/2, x+1/2, -z+1/2'
  13  '-x+1/2, y+1/2, z+1/2'
  14  '-y+1/2, -x+1/2, -z+1/2'
  15  'x+1/2, -y+1/2, z+1/2'
  16  'y+1/2, x+1/2, -z+1/2'
loop_
 _atom_site_type_symbol
 _atom_site_label
 _atom_site_symmetry_multiplicity
 _atom_site_fract_x
 _atom_site_fract_y
 _atom_site_fract_z
 _atom_site_occupancy
  Cs  Cs0  4  0.00000000  0.00000000  0.38800000  1.0
  Cs  Cs1  2  0.00000000  0.50000000  0.25000000  1.0
  K+  K2  2  0.00000000  0.50000000  0.75000000  0.8333333333333334
  Cs+  Cs3  2  0.00000000  0.50000000  0.75000000
  0.1111111111111111
  Rb+  Rb4  2  0.00000000  0.50000000  0.75000000
  0.05555555555555555
  In  In5  8  0.00000000  0.29500000  0.00590000  1.0
  In  In6  4  0.00000000  0.00000000  0.13980000  1.0
