# generated using pymatgen
data_Fr1.25Cs0.25Na0.25Li8.25Ts2At1.25Br2.75O4
_symmetry_space_group_name_H-M  'I -4 m 2'
_cell_length_a   4.02335000
_cell_length_b   4.02335000
_cell_length_c   21.56380000
_cell_angle_alpha   90.00000000
_cell_angle_beta   90.00000000
_cell_angle_gamma   90.00000000
_symmetry_Int_Tables_number   119
_chemical_formula_structural
Fr1.25Cs0.25Na0.25Li8.25Ts2At1.25Br2.75O4
_chemical_formula_sum
'Fr1.25 Cs0.25 Na0.25 Li8.25 Ts2 At1.25 Br2.75 O4'
_cell_volume   349.06067491
_cell_formula_units_Z   1
loop_
 _symmetry_equiv_pos_site_id
 _symmetry_equiv_pos_as_xyz
  1  'x, y, z'
  2  'y, -x, -z'
  3  '-x, -y, z'
  4  '-y, x, -z'
  5  '-x, y, z'
  6  '-y, -x, -z'
  7  'x, -y, z'
  8  'y, x, -z'
  9  'x+1/2, y+1/2, z+1/2'
  10  'y+1/2, -x+1/2, -z+1/2'
  11  '-x+1/2, -y+1/2, z+1/2'
  12  '-y+1/2, x+1/2, -z+1/2'
  13  '-x+1/2, y+1/2, z+1/2'
  14  '-y+1/2, -x+1/2, -z+1/2'
  15  'x+1/2, -y+1/2, z+1/2'
  16  'y+1/2, x+1/2, -z+1/2'
loop_
 _atom_type_symbol
 _atom_type_oxidation_number
  Fr0+  0.0
  Cs0+  0.0
  Na0+  0.0
  Li0+  0.0
  At0+  0.0
  Br0+  0.0
  O0+  0.0
  Ts0+  0.0
loop_
 _atom_site_type_symbol
 _atom_site_label
 _atom_site_symmetry_multiplicity
 _atom_site_fract_x
 _atom_site_fract_y
 _atom_site_fract_z
 _atom_site_occupancy
  Na0+  Na0  2  0.00000000  0.00000000  0.50000000  0.125
  Fr0+  Fr1  2  0.00000000  0.00000000  0.50000000  0.625
  Cs0+  Cs2  2  0.00000000  0.00000000  0.50000000  0.125
  Li0+  Li3  2  0.00000000  0.00000000  0.50000000  0.125
  Li0+  Li4  4  0.00000000  0.00000000  0.31390000  1.0
  Li0+  Li5  4  0.00000000  0.50000000  0.09000000  1.0
  Ts0+  Ts6  4  0.00000000  0.00000000  0.18887000  0.5
  Br0+  Br7  4  0.00000000  0.00000000  0.18887000  0.1875
  At0+  At8  4  0.00000000  0.00000000  0.18887000  0.3125
  Br0+  Br9  2  0.00000000  0.00000000  0.00000000  1.0
  O0+  O10  4  0.00000000  0.00000000  0.40360000  1.0
