# generated using pymatgen
data_Fe2McSi2Sn2Ge2Te5C6Se3N3(OF6)4
_symmetry_space_group_name_H-M  'P 4/m n c'
_cell_length_a   8.25800000
_cell_length_b   8.25800000
_cell_length_c   12.47100000
_cell_angle_alpha   90.00000000
_cell_angle_beta   90.00000000
_cell_angle_gamma   90.00000000
_symmetry_Int_Tables_number   128
_chemical_formula_structural   Fe2McSi2Sn2Ge2Te5C6Se3N3(OF6)4
_chemical_formula_sum   'Fe2 Mc1 Si2 Sn2 Ge2 Te5 C6 Se3 N3 O4 F24'
_cell_volume   850.45440764
_cell_formula_units_Z   1
loop_
 _symmetry_equiv_pos_site_id
 _symmetry_equiv_pos_as_xyz
  1  'x, y, z'
  2  '-x, -y, -z'
  3  '-y, x, z'
  4  'y, -x, -z'
  5  '-x, -y, z'
  6  'x, y, -z'
  7  'y, -x, z'
  8  '-y, x, -z'
  9  'x+1/2, -y+1/2, -z+1/2'
  10  '-x+1/2, y+1/2, z+1/2'
  11  '-y+1/2, -x+1/2, -z+1/2'
  12  'y+1/2, x+1/2, z+1/2'
  13  '-x+1/2, y+1/2, -z+1/2'
  14  'x+1/2, -y+1/2, z+1/2'
  15  'y+1/2, x+1/2, -z+1/2'
  16  '-y+1/2, -x+1/2, z+1/2'
loop_
 _atom_site_type_symbol
 _atom_site_label
 _atom_site_symmetry_multiplicity
 _atom_site_fract_x
 _atom_site_fract_y
 _atom_site_fract_z
 _atom_site_occupancy
  Fe  Fe0  2  0.00000000  0.00000000  0.00000000  1.0
  Mc+  Mc1  4  0.00000000  0.50000000  0.25000000  0.25
  N+  N2  4  0.00000000  0.50000000  0.25000000  0.75
  Si+  Si3  8  0.12960000  0.80950000  0.00000000  0.25
  Ge+  Ge4  8  0.12960000  0.80950000  0.00000000  0.25
  C+  C5  8  0.12960000  0.80950000  0.00000000  0.25
  Sn+  Sn6  8  0.12960000  0.80950000  0.00000000  0.25
  Te+  Te7  8  0.19650000  0.70330000  0.50000000  0.625
  Se+  Se8  8  0.19650000  0.70330000  0.50000000  0.375
  C  C9  4  0.00000000  0.00000000  0.15370000  1.0
  O  O10  4  0.00000000  0.00000000  0.24160000  1.0
  F  F11  16  0.10240000  0.38210000  0.14350000  1.0
  F  F12  8  0.15690000  0.65690000  0.75000000  1.0
