# generated using pymatgen
data_Si2.33333333H40Pt4Pb0.66666667Fl5N8Cl8
_symmetry_space_group_name_H-M  'P 4/m n c'
_cell_length_a   10.19640000
_cell_length_b   10.19640000
_cell_length_c   6.38760000
_cell_angle_alpha   90.00000000
_cell_angle_beta   90.00000000
_cell_angle_gamma   90.00000000
_symmetry_Int_Tables_number   128
_chemical_formula_structural   Si2.33333333H40Pt4Pb0.66666667Fl5N8Cl8
_chemical_formula_sum
'Si2.33333333 H40 Pt4 Pb0.66666667 Fl5 N8 Cl8'
_cell_volume   664.09688144
_cell_formula_units_Z   1
loop_
 _symmetry_equiv_pos_site_id
 _symmetry_equiv_pos_as_xyz
  1  'x, y, z'
  2  '-x, -y, -z'
  3  '-y, x, z'
  4  'y, -x, -z'
  5  '-x, -y, z'
  6  'x, y, -z'
  7  'y, -x, z'
  8  '-y, x, -z'
  9  'x+1/2, -y+1/2, -z+1/2'
  10  '-x+1/2, y+1/2, z+1/2'
  11  '-y+1/2, -x+1/2, -z+1/2'
  12  'y+1/2, x+1/2, z+1/2'
  13  '-x+1/2, y+1/2, -z+1/2'
  14  'x+1/2, -y+1/2, z+1/2'
  15  'y+1/2, x+1/2, -z+1/2'
  16  '-y+1/2, -x+1/2, z+1/2'
loop_
 _atom_site_type_symbol
 _atom_site_label
 _atom_site_symmetry_multiplicity
 _atom_site_fract_x
 _atom_site_fract_y
 _atom_site_fract_z
 _atom_site_occupancy
  H  H0  16  0.01300000  0.68840000  0.38030000  1.0
  H  H1  16  0.15350000  0.17360000  0.38790000  1.0
  H  H2  8  0.10420000  0.36820000  0.50000000  1.0
  Pt  Pt3  2  0.00000000  0.00000000  0.00000000  1.0
  Pt  Pt4  2  0.00000000  0.00000000  0.50000000  1.0
  Si+  Si5  8  0.03940000  0.30280000  0.50000000
  0.2916666666666667
  Pb+  Pb6  8  0.03940000  0.30280000  0.50000000
  0.08333333333333333
  Fl+  Fl7  8  0.03940000  0.30280000  0.50000000  0.625
  N  N8  8  0.10380000  0.17580000  0.50000000  1.0
  Cl  Cl9  8  0.10360000  0.79980000  0.00000000  1.0
