# generated using pymatgen
data_Fr5KRbEr8H57C48Se2(SO12)6
_symmetry_space_group_name_H-M  'I b a 2'
_cell_length_a   12.36050000
_cell_length_b   14.08100000
_cell_length_c   10.40210000
_cell_angle_alpha   90.00000000
_cell_angle_beta   90.00000000
_cell_angle_gamma   90.00000000
_symmetry_Int_Tables_number   45
_chemical_formula_structural   Fr5KRbEr8H57C48Se2(SO12)6
_chemical_formula_sum   'Fr5 Rb1 K1 Er8 H57 C48 Se2 S6 O72'
_cell_volume   1810.46678642
_cell_formula_units_Z   1
loop_
 _symmetry_equiv_pos_site_id
 _symmetry_equiv_pos_as_xyz
  1  'x, y, z'
  2  '-x, -y, z'
  3  '-x, y, z+1/2'
  4  'x, -y, z+1/2'
  5  'x+1/2, y+1/2, z+1/2'
  6  '-x+1/2, -y+1/2, z+1/2'
  7  '-x+1/2, y+1/2, z'
  8  'x+1/2, -y+1/2, z'
loop_
 _atom_site_type_symbol
 _atom_site_label
 _atom_site_symmetry_multiplicity
 _atom_site_fract_x
 _atom_site_fract_y
 _atom_site_fract_z
 _atom_site_occupancy
  Fr+  Fr0  8  0.18320000  0.07220000  0.10270000  0.625
  Rb+  Rb1  8  0.18320000  0.07220000  0.10270000  0.125
  H+  H2  8  0.18320000  0.07220000  0.10270000  0.125
  K+  K3  8  0.18320000  0.07220000  0.10270000  0.125
  Er  Er4  8  0.13060000  0.25018000  0.99900000  1.0
  H  H5  8  0.03810000  0.39830000  0.72890000  1.0
  H  H6  8  0.07560000  0.24650000  0.73830000  1.0
  H  H7  8  0.08360000  0.05820000  0.39870000  1.0
  H  H8  8  0.11850000  0.07670000  0.88610000  1.0
  H  H9  8  0.13130000  0.28360000  0.25580000  1.0
  H  H10  8  0.13300000  0.37360000  0.19960000  1.0
  H  H11  8  0.16140000  0.46100000  0.58210000  1.0
  C  C12  8  0.01830000  0.05230000  0.45320000  1.0
  C  C13  8  0.04440000  0.09050000  0.58670000  1.0
  C  C14  8  0.11500000  0.62060000  0.23760000  1.0
  C  C15  8  0.12510000  0.32980000  0.50730000  1.0
  C  C16  8  0.16770000  0.56090000  0.34410000  1.0
  C  C17  8  0.17180000  0.60580000  0.10930000  1.0
  S+  S18  8  0.19140000  0.27460000  0.45050000  0.75
  Se+  Se19  8  0.19140000  0.27460000  0.45050000  0.25
  O  O20  8  0.00010000  0.16740000  0.61810000  1.0
  O  O21  8  0.02760000  0.33570000  0.48590000  1.0
  O  O22  8  0.06410000  0.11240000  0.89870000  1.0
  O  O23  8  0.10610000  0.04450000  0.65710000  1.0
  O  O24  8  0.12020000  0.28200000  0.77780000  1.0
  O  O25  8  0.15660000  0.31710000  0.19490000  1.0
  O  O26  8  0.18550000  0.47570000  0.31880000  1.0
  O  O27  8  0.18670000  0.39820000  0.94700000  1.0
  O  O28  8  0.21570000  0.12350000  0.12210000  1.0
