# generated using pymatgen
data_Tm4Tl3Ga4Cu4NhPo8B12TeS5O26
_symmetry_space_group_name_H-M  'I b a 2'
_cell_length_a   6.22000000
_cell_length_b   8.44700000
_cell_length_c   12.66000000
_cell_angle_alpha   90.00000000
_cell_angle_beta   90.00000000
_cell_angle_gamma   90.00000000
_symmetry_Int_Tables_number   45
_chemical_formula_structural   Tm4Tl3Ga4Cu4NhPo8B12TeS5O26
_chemical_formula_sum   'Tm4 Tl3 Ga4 Cu4 Nh1 Po8 B12 Te1 S5 O26'
_cell_volume   665.16070440
_cell_formula_units_Z   1
loop_
 _symmetry_equiv_pos_site_id
 _symmetry_equiv_pos_as_xyz
  1  'x, y, z'
  2  '-x, -y, z'
  3  '-x+1/2, y+1/2, z'
  4  'x+1/2, -y+1/2, z'
  5  'x+1/2, y+1/2, z+1/2'
  6  '-x+1/2, -y+1/2, z+1/2'
  7  '-x, y, z+1/2'
  8  'x, -y, z+1/2'
loop_
 _atom_type_symbol
 _atom_type_oxidation_number
  Tm0+  0.0
  Tl0+  0.0
  Ga0+  0.0
  Cu0+  0.0
  Po0+  0.0
  B0+  0.0
  Te0+  0.0
  S0+  0.0
  O0+  0.0
  Nh0+  0.0
loop_
 _atom_site_type_symbol
 _atom_site_label
 _atom_site_symmetry_multiplicity
 _atom_site_fract_x
 _atom_site_fract_y
 _atom_site_fract_z
 _atom_site_occupancy
  Tm0+  Tm0  4  0.00000000  0.50000000  0.18797000  1.0
  Cu0+  Cu1  4  0.00000000  0.50000000  0.43990000  1.0
  Tl0+  Tl2  8  0.11590000  0.18990000  0.03970000  0.375
  Nh0+  Nh3  8  0.11590000  0.18990000  0.03970000  0.125
  Ga0+  Ga4  8  0.11590000  0.18990000  0.03970000  0.5
  B0+  B5  8  0.11770000  0.19310000  0.84190000  1.0
  B0+  B6  4  0.00000000  0.00000000  0.19310000  1.0
  Po0+  Po7  8  0.05330000  0.34180000  0.83140000  0.625
  S0+  S8  8  0.05330000  0.34180000  0.83140000  0.25
  Te0+  Te9  8  0.05330000  0.34180000  0.83140000  0.125
  Po0+  Po10  8  0.15100000  0.12380000  0.94080000  0.375
  S0+  S11  8  0.15100000  0.12380000  0.94080000  0.375
  O0+  O12  8  0.15100000  0.12380000  0.94080000  0.25
  O0+  O13  8  0.06890000  0.34520000  0.05250000  1.0
  O0+  O14  8  0.14590000  0.10000000  0.12810000  1.0
  O0+  O15  8  0.15300000  0.08970000  0.75570000  1.0
