# generated using pymatgen
data_La4As6P2H44C28N32Lv0.5O23.5
_symmetry_space_group_name_H-M  'I 21 21 21'
_cell_length_a   8.88400000
_cell_length_b   13.09300000
_cell_length_c   13.13460000
_cell_angle_alpha   90.00000000
_cell_angle_beta   90.00000000
_cell_angle_gamma   90.00000000
_symmetry_Int_Tables_number   24
_chemical_formula_structural   La4As6P2H44C28N32Lv0.5O23.5
_chemical_formula_sum   'La4 As6 P2 H44 C28 N32 Lv0.5 O23.5'
_cell_volume   1527.79318734
_cell_formula_units_Z   1
loop_
 _symmetry_equiv_pos_site_id
 _symmetry_equiv_pos_as_xyz
  1  'x, y, z'
  2  '-x, -y+1/2, z'
  3  'x+1/2, -y+1/2, -z'
  4  '-x+1/2, y, -z'
  5  'x+1/2, y+1/2, z+1/2'
  6  '-x+1/2, -y, z+1/2'
  7  'x, -y, -z+1/2'
  8  '-x, y+1/2, -z+1/2'
loop_
 _atom_site_type_symbol
 _atom_site_label
 _atom_site_symmetry_multiplicity
 _atom_site_fract_x
 _atom_site_fract_y
 _atom_site_fract_z
 _atom_site_occupancy
  La  La0  4  0.00000000  0.25000000  0.20595100  1.0
  As+  As1  8  0.03892000  0.45072000  0.74090000  0.75
  P+  P2  8  0.03892000  0.45072000  0.74090000  0.25
  H  H3  8  0.07200000  0.22200000  0.44080000  1.0
  H  H4  8  0.10860000  0.47830000  0.38290000  1.0
  H  H5  8  0.17300000  0.11700000  0.51800000  1.0
  H  H6  8  0.17400000  0.22440000  0.73000000  1.0
  H  H7  8  0.18100000  0.33770000  0.73600000  1.0
  H  H8  4  0.25000000  0.38850000  0.50000000  1.0
  C  C9  8  0.16630000  0.48640000  0.06959000  1.0
  C  C10  4  0.14490000  0.00000000  0.25000000  1.0
  C  C11  4  0.18700000  0.00000000  0.75000000  1.0
  C  C12  4  0.25000000  0.22641000  0.00000000  1.0
  C  C13  4  0.25000000  0.33866000  0.00000000  1.0
  C  C14  4  0.25000000  0.45950000  0.50000000  1.0
  N  N15  8  0.10306000  0.08277000  0.73497000  1.0
  N  N16  8  0.16423000  0.17060000  0.06017000  1.0
  N  N17  8  0.16577000  0.38358000  0.07070000  1.0
  N  N18  8  0.19850000  0.07322000  0.03569000  1.0
  Lv+  Lv19  8  0.07930000  0.08329000  0.26211000  0.0625
  O+  O20  8  0.07930000  0.08329000  0.26211000  0.9375
  O  O21  8  0.23315000  0.27968000  0.73341000  1.0
  O  O22  4  0.00000000  0.25000000  0.40173000  1.0
  O  O23  4  0.25000000  0.15800000  0.50000000  1.0
