# generated using pymatgen
data_Cu1Ag0.25Te3.5At0.5Au0.5Se0.25Cl0.75O0.25Rg0.25Ts0.75
_symmetry_space_group_name_H-M  'P m m b'
_cell_length_a   4.05600000
_cell_length_b   12.57900000
_cell_length_c   4.74100000
_cell_angle_alpha   90.00000000
_cell_angle_beta   90.00000000
_cell_angle_gamma   90.00000000
_symmetry_Int_Tables_number   51
_chemical_formula_structural
Cu1Ag0.25Te3.5At0.5Au0.5Se0.25Cl0.75O0.25Rg0.25Ts0.75
_chemical_formula_sum
'Cu1 Ag0.25 Te3.5 At0.5 Au0.5 Se0.25 Cl0.75 O0.25 Rg0.25 Ts0.75'
_cell_volume   241.88783018
_cell_formula_units_Z   1
loop_
 _symmetry_equiv_pos_site_id
 _symmetry_equiv_pos_as_xyz
  1  'x, y, z'
  2  '-x, -y, -z'
  3  '-x, -y+1/2, z'
  4  'x, y+1/2, -z'
  5  '-x, y+1/2, -z'
  6  'x, -y+1/2, z'
  7  'x, -y, -z'
  8  '-x, y, z'
loop_
 _atom_type_symbol
 _atom_type_oxidation_number
  Cu+  1.0
  Ag+  1.0
  Te+  1.0
  At+  1.0
  Au+  1.0
  Se+  1.0
  Cl+  1.0
  O+  1.0
  Rg+  1.0
  Ts+  1.0
loop_
 _atom_site_type_symbol
 _atom_site_label
 _atom_site_symmetry_multiplicity
 _atom_site_fract_x
 _atom_site_fract_y
 _atom_site_fract_z
 _atom_site_occupancy
  O+  O0  4  0.50000000  0.08158000  0.19745000  0.0625
  Se+  Se1  4  0.50000000  0.08158000  0.19745000  0.0625
  Te+  Te2  4  0.50000000  0.08158000  0.19745000  0.875
  Cu+  Cu3  2  0.00000000  0.00000000  0.50000000  0.5
  Rg+  Rg4  2  0.00000000  0.00000000  0.50000000  0.125
  Ag+  Ag5  2  0.00000000  0.00000000  0.50000000  0.125
  Au+  Au6  2  0.00000000  0.00000000  0.50000000  0.25
  Cl+  Cl7  2  0.00000000  0.25000000  0.73103000  0.375
  At+  At8  2  0.00000000  0.25000000  0.73103000  0.25
  Ts+  Ts9  2  0.00000000  0.25000000  0.73103000  0.375
