# generated using pymatgen
data_Ir1.16666667Rh0.33333333Mt0.16666667Co0.33333333W2
_symmetry_space_group_name_H-M  'P m m a'
_cell_length_a   4.45200000
_cell_length_b   2.76000000
_cell_length_c   4.81100000
_cell_angle_alpha   90.00000000
_cell_angle_beta   90.00000000
_cell_angle_gamma   90.00000000
_symmetry_Int_Tables_number   51
_chemical_formula_structural
Ir1.16666667Rh0.33333333Mt0.16666667Co0.33333333W2
_chemical_formula_sum
'Ir1.16666667 Rh0.33333333 Mt0.16666667 Co0.33333333 W2'
_cell_volume   59.11525872
_cell_formula_units_Z   1
loop_
 _symmetry_equiv_pos_site_id
 _symmetry_equiv_pos_as_xyz
  1  'x, y, z'
  2  '-x, -y, -z'
  3  '-x+1/2, -y, z'
  4  'x+1/2, y, -z'
  5  'x+1/2, -y, -z'
  6  '-x+1/2, y, z'
  7  '-x, y, -z'
  8  'x, -y, z'
loop_
 _atom_site_type_symbol
 _atom_site_label
 _atom_site_symmetry_multiplicity
 _atom_site_fract_x
 _atom_site_fract_y
 _atom_site_fract_z
 _atom_site_occupancy
  Ir+  Ir0  2  0.25000000  0.50000000  0.66700000
  0.5833333333333334
  Rh+  Rh1  2  0.25000000  0.50000000  0.66700000
  0.16666666666666666
  Mt+  Mt2  2  0.25000000  0.50000000  0.66700000
  0.08333333333333333
  Co+  Co3  2  0.25000000  0.50000000  0.66700000
  0.16666666666666666
  W  W4  2  0.25000000  0.00000000  0.16700000  1.0
