# generated using pymatgen
data_Sr6Li12Nb4Po2.5O18Lv1S0.5
_symmetry_space_group_name_H-M  'P m m a'
_cell_length_a   10.58340000
_cell_length_b   8.31030000
_cell_length_c   5.82770000
_cell_angle_alpha   90.00000000
_cell_angle_beta   90.00000000
_cell_angle_gamma   90.00000000
_symmetry_Int_Tables_number   51
_chemical_formula_structural   Sr6Li12Nb4Po2.5O18Lv1S0.5
_chemical_formula_sum   'Sr6 Li12 Nb4 Po2.5 O18 Lv1 S0.5'
_cell_volume   512.55337736
_cell_formula_units_Z   1
loop_
 _symmetry_equiv_pos_site_id
 _symmetry_equiv_pos_as_xyz
  1  'x, y, z'
  2  '-x, -y, -z'
  3  '-x+1/2, -y, z'
  4  'x+1/2, y, -z'
  5  'x+1/2, -y, -z'
  6  '-x+1/2, y, z'
  7  '-x, y, -z'
  8  'x, -y, z'
loop_
 _atom_site_type_symbol
 _atom_site_label
 _atom_site_symmetry_multiplicity
 _atom_site_fract_x
 _atom_site_fract_y
 _atom_site_fract_z
 _atom_site_occupancy
  Sr  Sr0  4  0.00000000  0.26056000  0.50000000  1.0
  Sr  Sr1  2  0.25000000  0.00000000  0.61717000  1.0
  Li  Li2  4  0.00000000  0.35270000  0.00000000  1.0
  Li  Li3  4  0.25000000  0.14830000  0.14490000  1.0
  Li  Li4  4  0.25000000  0.31170000  0.77920000  1.0
  Nb  Nb5  2  0.00000000  0.00000000  0.00000000  1.0
  Nb  Nb6  2  0.25000000  0.50000000  0.26404000  1.0
  O  O7  8  0.11060000  0.17310000  0.86880000  1.0
  O  O8  4  0.06010000  0.50000000  0.25090000  1.0
  O  O9  4  0.25000000  0.30290000  0.43030000  1.0
  Po+  Po10  4  0.10620000  0.00000000  0.28250000  0.625
  Lv+  Lv11  4  0.10620000  0.00000000  0.28250000  0.25
  S+  S12  4  0.10620000  0.00000000  0.28250000  0.125
  O  O13  2  0.25000000  0.50000000  0.94190000  1.0
