# generated using pymatgen
data_Fr0.66666667Cs1Rb2.33333333Al0.66666667Tl0.33333333In0.33333333Cu0.3333333
_symmetry_space_group_name_H-M  'P m m a'
_cell_length_a   5.65960000
_cell_length_b   6.74140000
_cell_length_c   9.04450000
_cell_angle_alpha   90.00000000
_cell_angle_beta   90.00000000
_cell_angle_gamma   90.00000000
_symmetry_Int_Tables_number   51
_chemical_formula_structural
;
Fr0.66666667Cs1Rb2.33333333Al0.66666667Tl0.33333333In0.33333333Cu0.333
33333Ag1B0.66666667Au4.33333333Rg0.33333333
;
_chemical_formula_sum
;
Fr0.66666667 Cs1 Rb2.33333333 Al0.66666667 Tl0.33333333 In0.33333333
Cu0.33333333 Ag1 B0.66666667 Au4.33333333 Rg0.33333333
;
_cell_volume   345.08048338
_cell_formula_units_Z   1
loop_
 _symmetry_equiv_pos_site_id
 _symmetry_equiv_pos_as_xyz
  1  'x, y, z'
  2  '-x, -y, -z'
  3  '-x+1/2, -y, z'
  4  'x+1/2, y, -z'
  5  'x+1/2, -y, -z'
  6  '-x+1/2, y, z'
  7  '-x, y, -z'
  8  'x, -y, z'
loop_
 _atom_site_type_symbol
 _atom_site_label
 _atom_site_symmetry_multiplicity
 _atom_site_fract_x
 _atom_site_fract_y
 _atom_site_fract_z
 _atom_site_occupancy
  Fr+  Fr0  2  0.25000000  0.50000000  0.13280000
  0.3333333333333333
  Rb+  Rb1  2  0.25000000  0.50000000  0.13280000
  0.16666666666666666
  Cs+  Cs2  2  0.25000000  0.50000000  0.13280000  0.5
  Rb  Rb3  2  0.25000000  0.00000000  0.37410000  1.0
  B+  B4  2  0.25000000  0.50000000  0.57444000  0.3333333333333333
  Al+  Al5  2  0.25000000  0.50000000  0.57444000
  0.3333333333333333
  In+  In6  2  0.25000000  0.50000000  0.57444000
  0.16666666666666666
  Tl+  Tl7  2  0.25000000  0.50000000  0.57444000
  0.16666666666666666
  Au  Au8  4  0.25000000  0.20949000  0.78478000  1.0
  Ag+  Ag9  2  0.00000000  0.00000000  0.00000000  0.5
  Cu+  Cu10  2  0.00000000  0.00000000  0.00000000
  0.16666666666666666
  Rg+  Rg11  2  0.00000000  0.00000000  0.00000000
  0.16666666666666666
  Au+  Au12  2  0.00000000  0.00000000  0.00000000
  0.16666666666666666
