# generated using pymatgen
data_Fr0.5Li1.5Sn0.5Ge1.5H102C92Fl2O12
_symmetry_space_group_name_H-M  'C m c 21'
_cell_length_a   24.25160000
_cell_length_b   10.84590000
_cell_length_c   7.52700000
_cell_angle_alpha   90.00000000
_cell_angle_beta   90.00000000
_cell_angle_gamma   90.00000000
_symmetry_Int_Tables_number   36
_chemical_formula_structural   Fr0.5Li1.5Sn0.5Ge1.5H102C92Fl2O12
_chemical_formula_sum   'Fr0.5 Li1.5 Sn0.5 Ge1.5 H102 C92 Fl2 O12'
_cell_volume   1979.83003487
_cell_formula_units_Z   1
loop_
 _symmetry_equiv_pos_site_id
 _symmetry_equiv_pos_as_xyz
  1  'x, y, z'
  2  '-x, -y, z+1/2'
  3  '-x, y, z'
  4  'x, -y, z+1/2'
  5  'x+1/2, y+1/2, z'
  6  '-x+1/2, -y+1/2, z+1/2'
  7  '-x+1/2, y+1/2, z'
  8  'x+1/2, -y+1/2, z+1/2'
loop_
 _atom_site_type_symbol
 _atom_site_label
 _atom_site_symmetry_multiplicity
 _atom_site_fract_x
 _atom_site_fract_y
 _atom_site_fract_z
 _atom_site_occupancy
  H+  H0  8  0.08370000  0.38860000  0.92310000  0.75
  Li+  Li1  8  0.08370000  0.38860000  0.92310000  0.1875
  Fr+  Fr2  8  0.08370000  0.38860000  0.92310000  0.0625
  H  H3  8  0.05140000  0.49440000  0.82620000  1.0
  H  H4  8  0.05430000  0.09650000  0.03160000  1.0
  H  H5  8  0.06980000  0.08580000  0.23320000  1.0
  H  H6  8  0.08650000  0.01930000  0.60080000  1.0
  H  H7  8  0.09330000  0.25280000  0.49670000  1.0
  H  H8  8  0.13310000  0.21770000  0.11680000  1.0
  H  H9  8  0.14330000  0.13100000  0.95230000  1.0
  H  H10  8  0.14930000  0.49410000  0.76630000  1.0
  H  H11  8  0.18720000  0.18990000  0.49380000  1.0
  H  H12  8  0.22120000  0.26580000  0.01880000  1.0
  H  H13  8  0.24100000  0.45880000  0.28850000  1.0
  H  H14  4  0.00000000  0.29000000  0.99260000  1.0
  H  H15  4  0.00000000  0.42450000  0.07050000  1.0
  C  C16  8  0.05110000  0.40700000  0.85320000  1.0
  C  C17  8  0.05306000  0.33500000  0.68310000  1.0
  C  C18  8  0.08165000  0.06810000  0.11420000  1.0
  C  C19  8  0.09916000  0.30380000  0.59430000  1.0
  C  C20  8  0.13522000  0.13240000  0.07840000  1.0
  C  C21  8  0.15699000  0.33630000  0.62520000  1.0
  C  C22  8  0.17517000  0.44190000  0.71490000  1.0
  C  C23  8  0.19778000  0.26110000  0.55360000  1.0
  C  C24  8  0.23013000  0.47020000  0.72880000  1.0
  C  C25  8  0.23052000  0.10660000  0.15430000  1.0
  C  C26  4  0.00000000  0.29310000  0.60130000  1.0
  Fl+  Fl27  4  0.00000000  0.37680000  0.96150000  0.5
  Sn+  Sn28  4  0.00000000  0.37680000  0.96150000  0.125
  Ge+  Ge29  4  0.00000000  0.37680000  0.96150000  0.375
  C  C30  8  0.24723000  0.21270000  0.06740000  1.0
  O  O31  8  0.17725000  0.06933000  0.17450000  1.0
  O  O32  4  0.00000000  0.22930000  0.46960000  1.0
