# generated using pymatgen
data_Bi1.5As2H84At1Pb0.5Au4C40.5Fl3Br7N4Mc0.5Cl8
_symmetry_space_group_name_H-M  'C m c 21'
_cell_length_a   9.97720000
_cell_length_b   14.71250000
_cell_length_c   11.67420000
_cell_angle_alpha   90.00000000
_cell_angle_beta   90.00000000
_cell_angle_gamma   90.00000000
_symmetry_Int_Tables_number   36
_chemical_formula_structural
Bi1.5As2H84At1Pb0.5Au4C40.5Fl3Br7N4Mc0.5Cl8
_chemical_formula_sum
'Bi1.5 As2 H84 At1 Pb0.5 Au4 C40.5 Fl3 Br7 N4 Mc0.5 Cl8'
_cell_volume   1713.65062298
_cell_formula_units_Z   1
loop_
 _symmetry_equiv_pos_site_id
 _symmetry_equiv_pos_as_xyz
  1  'x, y, z'
  2  '-x, -y, z+1/2'
  3  '-x, y, z'
  4  'x, -y, z+1/2'
  5  'x+1/2, y+1/2, z'
  6  '-x+1/2, -y+1/2, z+1/2'
  7  '-x+1/2, y+1/2, z'
  8  'x+1/2, -y+1/2, z+1/2'
loop_
 _atom_site_type_symbol
 _atom_site_label
 _atom_site_symmetry_multiplicity
 _atom_site_fract_x
 _atom_site_fract_y
 _atom_site_fract_z
 _atom_site_occupancy
  H  H0  8  0.07900000  0.08800000  0.20810000  1.0
  H  H1  8  0.07900000  0.34940000  0.36800000  1.0
  H  H2  8  0.11660000  0.12220000  0.90790000  1.0
  H  H3  8  0.12740000  0.49140000  0.65080000  1.0
  H  H4  8  0.12910000  0.46770000  0.78210000  1.0
  H  H5  8  0.13670000  0.03370000  0.98140000  1.0
  H  H6  8  0.20320000  0.44480000  0.23740000  1.0
  H  H7  8  0.20340000  0.12600000  0.02160000  1.0
  H  H8  4  0.00000000  0.00680000  0.15170000  1.0
  H  H9  4  0.00000000  0.23460000  0.24350000  1.0
  H  H10  4  0.00000000  0.27710000  0.90840000  1.0
  H  H11  4  0.00000000  0.42390000  0.00090000  1.0
  H  H12  4  0.00000000  0.43350000  0.41640000  1.0
  Au  Au13  4  0.00000000  0.20486900  0.57647000  1.0
  C  C14  8  0.12620000  0.09890000  0.98410000  1.0
  C  C15  8  0.12680000  0.48380000  0.22690000  1.0
  C  C16  4  0.00000000  0.07130000  0.16510000  1.0
  C  C17  4  0.00000000  0.12140000  0.05050000  1.0
  C  C18  4  0.00000000  0.26340000  0.17230000  1.0
  C  C19  4  0.00000000  0.28710000  0.98720000  1.0
  C  C20  4  0.00000000  0.36770000  0.03740000  1.0
  C  C21  4  0.00000000  0.42830000  0.24370000  1.0
  Pb+  Pb22  4  0.00000000  0.38650000  0.35920000  0.125
  Fl+  Fl23  4  0.00000000  0.38650000  0.35920000  0.75
  C+  C24  4  0.00000000  0.38650000  0.35920000  0.125
  N  N25  4  0.00000000  0.35340000  0.15520000  1.0
  As+  As26  4  0.00000000  0.22170000  0.06800000  0.5
  Bi+  Bi27  4  0.00000000  0.22170000  0.06800000  0.375
  Mc+  Mc28  4  0.00000000  0.22170000  0.06800000  0.125
  Br+  Br29  8  0.16154000  0.24880000  0.70260000  0.875
  At+  At30  8  0.16154000  0.24880000  0.70260000  0.125
  Cl  Cl31  8  0.16148000  0.16279000  0.44850000  1.0
