# generated using pymatgen
data_Hg1Cn0.66666667Tl0.33333333Zn0.33333333In1.33333333B1.33333333Nh1S8
_symmetry_space_group_name_H-M  'I -4'
_cell_length_a   5.57600000
_cell_length_b   5.57600000
_cell_length_c   10.07400000
_cell_angle_alpha   90.00000000
_cell_angle_beta   90.00000000
_cell_angle_gamma   90.00000000
_symmetry_Int_Tables_number   82
_chemical_formula_structural
Hg1Cn0.66666667Tl0.33333333Zn0.33333333In1.33333333B1.33333333Nh1S8
_chemical_formula_sum
;
Hg1 Cn0.66666667 Tl0.33333333 Zn0.33333333 In1.33333333 B1.33333333
Nh1 S8
;
_cell_volume   313.21855142
_cell_formula_units_Z   1
loop_
 _symmetry_equiv_pos_site_id
 _symmetry_equiv_pos_as_xyz
  1  'x, y, z'
  2  'y, -x, -z'
  3  '-x, -y, z'
  4  '-y, x, -z'
  5  'x+1/2, y+1/2, z+1/2'
  6  'y+1/2, -x+1/2, -z+1/2'
  7  '-x+1/2, -y+1/2, z+1/2'
  8  '-y+1/2, x+1/2, -z+1/2'
loop_
 _atom_type_symbol
 _atom_type_oxidation_number
  Tl0+  0.0
  Zn0+  0.0
  In0+  0.0
  Hg0+  0.0
  B0+  0.0
  S0+  0.0
  Cn0+  0.0
  Nh0+  0.0
loop_
 _atom_site_type_symbol
 _atom_site_label
 _atom_site_symmetry_multiplicity
 _atom_site_fract_x
 _atom_site_fract_y
 _atom_site_fract_z
 _atom_site_occupancy
  Hg0+  Hg0  2  0.00000000  0.00000000  0.00000000  0.5
  Cn0+  Cn1  2  0.00000000  0.00000000  0.00000000
  0.3333333333333333
  Zn0+  Zn2  2  0.00000000  0.00000000  0.00000000
  0.16666666666666666
  B0+  B3  2  0.00000000  0.00000000  0.50000000  0.6666666666666666
  Tl0+  Tl4  2  0.00000000  0.00000000  0.50000000
  0.16666666666666666
  In0+  In5  2  0.00000000  0.00000000  0.50000000
  0.16666666666666666
  In0+  In6  2  0.00000000  0.50000000  0.25000000  0.5
  Nh0+  Nh7  2  0.00000000  0.50000000  0.25000000  0.5
  S0+  S8  8  0.23000000  0.24000000  0.64000000  1.0
