# generated using pymatgen
data_K8Zr8Te0.33333333Se1.66666667S0.33333333O17.66666667
_symmetry_space_group_name_H-M  'P n n a'
_cell_length_a   5.85000000
_cell_length_b   10.79000000
_cell_length_c   8.76000000
_cell_angle_alpha   90.00000000
_cell_angle_beta   90.00000000
_cell_angle_gamma   90.00000000
_symmetry_Int_Tables_number   52
_chemical_formula_structural
K8Zr8Te0.33333333Se1.66666667S0.33333333O17.66666667
_chemical_formula_sum
'K8 Zr8 Te0.33333333 Se1.66666667 S0.33333333 O17.66666667'
_cell_volume   552.94434000
_cell_formula_units_Z   1
loop_
 _symmetry_equiv_pos_site_id
 _symmetry_equiv_pos_as_xyz
  1  'x, y, z'
  2  '-x, -y, -z'
  3  '-x+1/2, -y, z'
  4  'x+1/2, y, -z'
  5  'x, -y+1/2, -z+1/2'
  6  '-x, y+1/2, z+1/2'
  7  '-x+1/2, y+1/2, -z+1/2'
  8  'x+1/2, -y+1/2, z+1/2'
loop_
 _atom_type_symbol
 _atom_type_oxidation_number
  K0+  0.0
  Zr0+  0.0
  Te0+  0.0
  Se0+  0.0
  S0+  0.0
  O0+  0.0
loop_
 _atom_site_type_symbol
 _atom_site_label
 _atom_site_symmetry_multiplicity
 _atom_site_fract_x
 _atom_site_fract_y
 _atom_site_fract_z
 _atom_site_occupancy
  K0+  K0  8  0.06200000  0.66600000  0.07700000  1.0
  Zr0+  Zr1  8  0.03030000  0.57630000  0.66030000  1.0
  O0+  O2  4  0.25000000  0.00000000  0.25500000  0.4166666666666667
  Se0+  Se3  4  0.25000000  0.00000000  0.25500000
  0.4166666666666667
  Te0+  Te4  4  0.25000000  0.00000000  0.25500000
  0.08333333333333333
  S0+  S5  4  0.25000000  0.00000000  0.25500000
  0.08333333333333333
  O0+  O6  8  0.13600000  0.10200000  0.94600000  1.0
  O0+  O7  4  0.04000000  0.25000000  0.25000000  1.0
  O0+  O8  4  0.25000000  0.00000000  0.67700000  1.0
