# generated using pymatgen
data_Ta4Bi4Lv6.66666667Se1.33333333O8
_symmetry_space_group_name_H-M  'P n n a'
_cell_length_a   5.63840000
_cell_length_b   11.77300000
_cell_length_c   4.96080000
_cell_angle_alpha   90.00000000
_cell_angle_beta   90.00000000
_cell_angle_gamma   90.00000000
_symmetry_Int_Tables_number   52
_chemical_formula_structural   Ta4Bi4Lv6.66666667Se1.33333333O8
_chemical_formula_sum   'Ta4 Bi4 Lv6.66666667 Se1.33333333 O8'
_cell_volume   329.30228538
_cell_formula_units_Z   1
loop_
 _symmetry_equiv_pos_site_id
 _symmetry_equiv_pos_as_xyz
  1  'x, y, z'
  2  '-x, -y, -z'
  3  '-x+1/2, -y, z'
  4  'x+1/2, y, -z'
  5  'x, -y+1/2, -z+1/2'
  6  '-x, y+1/2, z+1/2'
  7  '-x+1/2, y+1/2, -z+1/2'
  8  'x+1/2, -y+1/2, z+1/2'
loop_
 _atom_type_symbol
 _atom_type_oxidation_number
  Ta0+  0.0
  Bi0+  0.0
  Se0+  0.0
  O0+  0.0
  Lv0+  0.0
loop_
 _atom_site_type_symbol
 _atom_site_label
 _atom_site_symmetry_multiplicity
 _atom_site_fract_x
 _atom_site_fract_y
 _atom_site_fract_z
 _atom_site_occupancy
  Ta0+  Ta0  4  0.13710000  0.75000000  0.25000000  1.0
  Bi0+  Bi1  4  0.25000000  0.00000000  0.72080000  1.0
  Lv0+  Lv2  8  0.08100000  0.59300000  0.09400000
  0.8333333333333334
  Se0+  Se3  8  0.08100000  0.59300000  0.09400000
  0.16666666666666666
  O0+  O4  8  0.13600000  0.19700000  0.96300000  1.0
