# generated using pymatgen
data_Cs1K1Mc0.33333333P1.66666667Cl12
_symmetry_space_group_name_H-M  'P 42/m'
_cell_length_a   6.39300000
_cell_length_b   6.39300000
_cell_length_c   10.71700000
_cell_angle_alpha   90.00000000
_cell_angle_beta   90.00000000
_cell_angle_gamma   90.00000000
_symmetry_Int_Tables_number   84
_chemical_formula_structural   Cs1K1Mc0.33333333P1.66666667Cl12
_chemical_formula_sum   'Cs1 K1 Mc0.33333333 P1.66666667 Cl12'
_cell_volume   438.00860193
_cell_formula_units_Z   1
loop_
 _symmetry_equiv_pos_site_id
 _symmetry_equiv_pos_as_xyz
  1  'x, y, z'
  2  '-x, -y, -z'
  3  '-y, x, z+1/2'
  4  'y, -x, -z+1/2'
  5  '-x, -y, z'
  6  'x, y, -z'
  7  'y, -x, z+1/2'
  8  '-y, x, -z+1/2'
loop_
 _atom_type_symbol
 _atom_type_oxidation_number
  Cs0+  0.0
  K0+  0.0
  P0+  0.0
  Cl0+  0.0
  Mc0+  0.0
loop_
 _atom_site_type_symbol
 _atom_site_label
 _atom_site_symmetry_multiplicity
 _atom_site_fract_x
 _atom_site_fract_y
 _atom_site_fract_z
 _atom_site_occupancy
  Cs0+  Cs0  2  0.00000000  0.00000000  0.25000000  0.5
  K0+  K1  2  0.00000000  0.00000000  0.25000000  0.5
  Mc0+  Mc2  2  0.00000000  0.50000000  0.00000000
  0.16666666666666666
  P0+  P3  2  0.00000000  0.50000000  0.00000000  0.8333333333333334
  Cl0+  Cl4  8  0.21590000  0.35170000  0.15570000  1.0
  Cl0+  Cl5  4  0.19590000  0.21290000  0.50000000  1.0
