# generated using pymatgen
data_Au1.25Rg2.75Sn0.25Ge1.75Pb2S4
_symmetry_space_group_name_H-M  'P 42/m'
_cell_length_a   8.44880000
_cell_length_b   8.44880000
_cell_length_c   4.00590000
_cell_angle_alpha   90.00000000
_cell_angle_beta   90.00000000
_cell_angle_gamma   90.00000000
_symmetry_Int_Tables_number   84
_chemical_formula_structural   Au1.25Rg2.75Sn0.25Ge1.75Pb2S4
_chemical_formula_sum   'Au1.25 Rg2.75 Sn0.25 Ge1.75 Pb2 S4'
_cell_volume   285.95004087
_cell_formula_units_Z   1
loop_
 _symmetry_equiv_pos_site_id
 _symmetry_equiv_pos_as_xyz
  1  'x, y, z'
  2  '-x, -y, -z'
  3  '-y, x, z+1/2'
  4  'y, -x, -z+1/2'
  5  '-x, -y, z'
  6  'x, y, -z'
  7  'y, -x, z+1/2'
  8  '-y, x, -z+1/2'
loop_
 _atom_type_symbol
 _atom_type_oxidation_number
  Sn0+  0.0
  Ge0+  0.0
  Pb0+  0.0
  Au0+  0.0
  S0+  0.0
  Rg0+  0.0
loop_
 _atom_site_type_symbol
 _atom_site_label
 _atom_site_symmetry_multiplicity
 _atom_site_fract_x
 _atom_site_fract_y
 _atom_site_fract_z
 _atom_site_occupancy
  Au0+  Au0  4  0.07400000  0.17200000  0.00000000  0.3125
  Rg0+  Rg1  4  0.07400000  0.17200000  0.00000000  0.6875
  Pb0+  Pb2  4  0.22900000  0.59800000  0.00000000  0.5
  Ge0+  Ge3  4  0.22900000  0.59800000  0.00000000  0.4375
  Sn0+  Sn4  4  0.22900000  0.59800000  0.00000000  0.0625
  S0+  S5  4  0.18700000  0.19600000  0.50000000  1.0
