# generated using pymatgen
data_Ds3.83333333Ni1.5Pd2.5Pt0.16666667S8
_symmetry_space_group_name_H-M  'P 42/m'
_cell_length_a   6.42870000
_cell_length_b   6.42870000
_cell_length_c   6.60820000
_cell_angle_alpha   90.00000000
_cell_angle_beta   90.00000000
_cell_angle_gamma   90.00000000
_symmetry_Int_Tables_number   84
_chemical_formula_structural   Ds3.83333333Ni1.5Pd2.5Pt0.16666667S8
_chemical_formula_sum   'Ds3.83333333 Ni1.5 Pd2.5 Pt0.16666667 S8'
_cell_volume   273.10490346
_cell_formula_units_Z   1
loop_
 _symmetry_equiv_pos_site_id
 _symmetry_equiv_pos_as_xyz
  1  'x, y, z'
  2  '-x, -y, -z'
  3  '-y, x, z+1/2'
  4  'y, -x, -z+1/2'
  5  '-x, -y, z'
  6  'x, y, -z'
  7  'y, -x, z+1/2'
  8  '-y, x, -z+1/2'
loop_
 _atom_type_symbol
 _atom_type_oxidation_number
  Ni0+  0.0
  Pd0+  0.0
  Pt0+  0.0
  S0+  0.0
  Ds0+  0.0
loop_
 _atom_site_type_symbol
 _atom_site_label
 _atom_site_symmetry_multiplicity
 _atom_site_fract_x
 _atom_site_fract_y
 _atom_site_fract_z
 _atom_site_occupancy
  Ds0+  Ds0  4  0.25000000  0.52500000  0.50000000
  0.8333333333333334
  Ni0+  Ni1  4  0.25000000  0.52500000  0.50000000  0.125
  Pd0+  Pd2  4  0.25000000  0.52500000  0.50000000
  0.041666666666666664
  Ds0+  Ds3  2  0.00000000  0.00000000  0.25000000  0.25
  Ni0+  Ni4  2  0.00000000  0.00000000  0.25000000  0.5
  Pd0+  Pd5  2  0.00000000  0.00000000  0.25000000
  0.16666666666666666
  Pt0+  Pt6  2  0.00000000  0.00000000  0.25000000
  0.08333333333333333
  Pd0+  Pd7  2  0.00000000  0.50000000  0.00000000  1.0
  S0+  S8  8  0.20000000  0.32000000  0.22000000  1.0
