# generated using pymatgen
data_Cs0.66666667Rb2K0.33333333Na1Cd4Au4S7Lv1
_symmetry_space_group_name_H-M  'P c c a'
_cell_length_a   13.93000000
_cell_length_b   5.75700000
_cell_length_c   6.74200000
_cell_angle_alpha   90.00000000
_cell_angle_beta   90.00000000
_cell_angle_gamma   90.00000000
_symmetry_Int_Tables_number   54
_chemical_formula_structural
Cs0.66666667Rb2K0.33333333Na1Cd4Au4S7Lv1
_chemical_formula_sum
'Cs0.66666667 Rb2 K0.33333333 Na1 Cd4 Au4 S7 Lv1'
_cell_volume   540.67475742
_cell_formula_units_Z   1
loop_
 _symmetry_equiv_pos_site_id
 _symmetry_equiv_pos_as_xyz
  1  'x, y, z'
  2  '-x, -y, -z'
  3  '-x+1/2, -y, z'
  4  'x+1/2, y, -z'
  5  'x+1/2, -y, -z+1/2'
  6  '-x+1/2, y, z+1/2'
  7  '-x, y, -z+1/2'
  8  'x, -y, z+1/2'
loop_
 _atom_type_symbol
 _atom_type_oxidation_number
  Cs0+  0.0
  K0+  0.0
  Rb0+  0.0
  Na0+  0.0
  Cd0+  0.0
  Au0+  0.0
  S0+  0.0
  Lv0+  0.0
loop_
 _atom_site_type_symbol
 _atom_site_label
 _atom_site_symmetry_multiplicity
 _atom_site_fract_x
 _atom_site_fract_y
 _atom_site_fract_z
 _atom_site_occupancy
  Rb0+  Rb0  4  0.00000000  0.27800000  0.25000000  0.5
  Cs0+  Cs1  4  0.00000000  0.27800000  0.25000000
  0.16666666666666666
  K0+  K2  4  0.00000000  0.27800000  0.25000000
  0.08333333333333333
  Na0+  Na3  4  0.00000000  0.27800000  0.25000000  0.25
  Cd0+  Cd4  4  0.25000000  0.00000000  0.43820000  1.0
  Au0+  Au5  4  0.25000000  0.50000000  0.18420000  1.0
  S0+  S6  8  0.13580000  0.20400000  0.68800000  0.875
  Lv0+  Lv7  8  0.13580000  0.20400000  0.68800000  0.125
