# generated using pymatgen
data_Cd4As6.25P1.75H56C44N8
_symmetry_space_group_name_H-M  'P c c a'
_cell_length_a   16.98325000
_cell_length_b   8.46710000
_cell_length_c   7.93214000
_cell_angle_alpha   90.00000000
_cell_angle_beta   90.00000000
_cell_angle_gamma   90.00000000
_symmetry_Int_Tables_number   54
_chemical_formula_structural   Cd4As6.25P1.75H56C44N8
_chemical_formula_sum   'Cd4 As6.25 P1.75 H56 C44 N8'
_cell_volume   1140.63281687
_cell_formula_units_Z   1
loop_
 _symmetry_equiv_pos_site_id
 _symmetry_equiv_pos_as_xyz
  1  'x, y, z'
  2  '-x, -y, -z'
  3  '-x+1/2, -y, z'
  4  'x+1/2, y, -z'
  5  'x+1/2, -y, -z+1/2'
  6  '-x+1/2, y, z+1/2'
  7  '-x, y, -z+1/2'
  8  'x, -y, z+1/2'
loop_
 _atom_site_type_symbol
 _atom_site_label
 _atom_site_symmetry_multiplicity
 _atom_site_fract_x
 _atom_site_fract_y
 _atom_site_fract_z
 _atom_site_occupancy
  Cd  Cd0  4  0.25000000  0.00000000  0.46684000  1.0
  As+  As1  8  0.19479320  0.15865010  0.78928540  0.78125
  P+  P2  8  0.19479320  0.15865010  0.78928540  0.21875
  H  H3  8  0.00509450  0.11411010  0.03296461  1.0
  H  H4  8  0.01565310  0.39278800  0.87165320  1.0
  H  H5  8  0.05692600  0.25535430  0.36263240  1.0
  H  H6  8  0.08328860  0.04994000  0.36328910  1.0
  H  H7  8  0.10322150  0.29941950  0.09918140  1.0
  H  H8  8  0.11855590  0.47611150  0.97829440  1.0
  H  H9  8  0.20147140  0.36274470  0.04974120  1.0
  C  C10  8  0.05614000  0.14564280  0.43688455  1.0
  C  C11  8  0.07703970  0.25365660  0.73349210  1.0
  C  C12  8  0.10148470  0.16950540  0.59715255  1.0
  C  C13  8  0.13470750  0.24694770  0.85223680  1.0
  C  C14  8  0.14052130  0.35617110  0.00335100  1.0
  C  C15  4  0.00000000  0.33890330  0.75000000  1.0
  N  N16  8  0.17426040  0.11078820  0.63163470  1.0
