# generated using pymatgen
data_Tb0.5La0.5Ce0.5Sm0.5Pd1.5Ds0.5Ge2Pb2
_symmetry_space_group_name_H-M  'A m m 2'
_cell_length_a   3.53000000
_cell_length_b   4.48600000
_cell_length_c   6.01400000
_cell_angle_alpha   90.00000000
_cell_angle_beta   90.00000000
_cell_angle_gamma   90.00000000
_symmetry_Int_Tables_number   38
_chemical_formula_structural   Tb0.5La0.5Ce0.5Sm0.5Pd1.5Ds0.5Ge2Pb2
_chemical_formula_sum   'Tb0.5 La0.5 Ce0.5 Sm0.5 Pd1.5 Ds0.5 Ge2 Pb2'
_cell_volume   95.23517812
_cell_formula_units_Z   1
loop_
 _symmetry_equiv_pos_site_id
 _symmetry_equiv_pos_as_xyz
  1  'x, y, z'
  2  '-x, -y, z'
  3  '-x, y, z'
  4  'x, -y, z'
  5  'x, y+1/2, z+1/2'
  6  '-x, -y+1/2, z+1/2'
  7  '-x, y+1/2, z+1/2'
  8  'x, -y+1/2, z+1/2'
loop_
 _atom_type_symbol
 _atom_type_oxidation_number
  La+  1.0
  Tb+  1.0
  Ce+  1.0
  Sm+  1.0
  Ge+  1.0
  Pd+  1.0
  Pb+  1.0
  Ds+  1.0
loop_
 _atom_site_type_symbol
 _atom_site_label
 _atom_site_symmetry_multiplicity
 _atom_site_fract_x
 _atom_site_fract_y
 _atom_site_fract_z
 _atom_site_occupancy
  Ce+  Ce0  2  0.00000000  0.00000000  0.00000000  0.25
  Tb+  Tb1  2  0.00000000  0.00000000  0.00000000  0.25
  La+  La2  2  0.00000000  0.00000000  0.00000000  0.25
  Sm+  Sm3  2  0.00000000  0.00000000  0.00000000  0.25
  Pd+  Pd4  2  0.50000000  0.00000000  0.61200000  0.75
  Ds+  Ds5  2  0.50000000  0.00000000  0.61200000  0.25
  Ge+  Ge6  4  0.50000000  0.15300000  0.30200000  0.5
  Pb+  Pb7  4  0.50000000  0.15300000  0.30200000  0.5
