# generated using pymatgen
data_Ba1.33333333Ra0.33333333Sr0.33333333Ca0.66666667Mg1Be0.33333333Ge8P8
_symmetry_space_group_name_H-M  'P 42 m c'
_cell_length_a   7.61800000
_cell_length_b   7.61800000
_cell_length_c   8.50000000
_cell_angle_alpha   90.00000000
_cell_angle_beta   90.00000000
_cell_angle_gamma   90.00000000
_symmetry_Int_Tables_number   105
_chemical_formula_structural
Ba1.33333333Ra0.33333333Sr0.33333333Ca0.66666667Mg1Be0.33333333Ge8P8
_chemical_formula_sum
;
Ba1.33333333 Ra0.33333333 Sr0.33333333 Ca0.66666667 Mg1 Be0.33333333
Ge8 P8
;
_cell_volume   493.28835400
_cell_formula_units_Z   1
loop_
 _symmetry_equiv_pos_site_id
 _symmetry_equiv_pos_as_xyz
  1  'x, y, z'
  2  '-y, x, z+1/2'
  3  '-x, -y, z'
  4  'y, -x, z+1/2'
  5  '-x, y, z'
  6  'y, x, z+1/2'
  7  'x, -y, z'
  8  '-y, -x, z+1/2'
loop_
 _atom_type_symbol
 _atom_type_oxidation_number
  Ba0+  0.0
  Ra0+  0.0
  Sr0+  0.0
  Ca0+  0.0
  Mg0+  0.0
  Be0+  0.0
  Ge0+  0.0
  P0+  0.0
loop_
 _atom_site_type_symbol
 _atom_site_label
 _atom_site_symmetry_multiplicity
 _atom_site_fract_x
 _atom_site_fract_y
 _atom_site_fract_z
 _atom_site_occupancy
  Ba0+  Ba0  2  0.00000000  0.00000000  0.00000000  0.5
  Be0+  Be1  2  0.00000000  0.00000000  0.00000000
  0.16666666666666666
  Sr0+  Sr2  2  0.00000000  0.00000000  0.00000000
  0.16666666666666666
  Ra0+  Ra3  2  0.00000000  0.00000000  0.00000000
  0.16666666666666666
  Mg0+  Mg4  2  0.00000000  0.50000000  0.52760000  0.5
  Ca0+  Ca5  2  0.00000000  0.50000000  0.52760000
  0.3333333333333333
  Ba0+  Ba6  2  0.00000000  0.50000000  0.52760000
  0.16666666666666666
  Ge0+  Ge7  4  0.16560000  0.50000000  0.11410000  1.0
  Ge0+  Ge8  4  0.33180000  0.50000000  0.86550000  1.0
  P0+  P9  8  0.23150000  0.24880000  0.25640000  1.0
