# generated using pymatgen
data_In4P12O36.33333333Lv0.44444444Po1.11111111Te0.11111111
_symmetry_space_group_name_H-M  'P m m n :2'
_cell_length_a   12.93980000
_cell_length_b   11.37250000
_cell_length_c   5.03850000
_cell_angle_alpha   90.00000000
_cell_angle_beta   90.00000000
_cell_angle_gamma   90.00000000
_symmetry_Int_Tables_number   59
_chemical_formula_structural
In4P12O36.33333333Lv0.44444444Po1.11111111Te0.11111111
_chemical_formula_sum
'In4 P12 O36.33333333 Lv0.44444444 Po1.11111111 Te0.11111111'
_cell_volume   741.45495571
_cell_formula_units_Z   1
loop_
 _symmetry_equiv_pos_site_id
 _symmetry_equiv_pos_as_xyz
  1  'x, y, z'
  2  '-x+1/2, -y+1/2, z'
  3  '-x, y+1/2, -z'
  4  'x+1/2, -y, -z'
  5  '-x, -y, -z'
  6  'x+1/2, y+1/2, -z'
  7  'x, -y+1/2, z'
  8  '-x+1/2, y, z'
loop_
 _atom_type_symbol
 _atom_type_oxidation_number
  In0+  0.0
  Po0+  0.0
  Te0+  0.0
  P0+  0.0
  O0+  0.0
  Lv0+  0.0
loop_
 _atom_site_type_symbol
 _atom_site_label
 _atom_site_symmetry_multiplicity
 _atom_site_fract_x
 _atom_site_fract_y
 _atom_site_fract_z
 _atom_site_occupancy
  In0+  In0  4  0.00000000  0.00000000  0.00000000  1.0
  P0+  P1  8  0.13590000  0.62120000  0.50600000  1.0
  P0+  P2  4  0.13280000  0.25000000  0.05600000  1.0
  O0+  O3  8  0.06260000  0.61900000  0.27900000  1.0
  O0+  O4  8  0.08500000  0.14440000  0.18200000  1.0
  O0+  O5  8  0.11910000  0.53500000  0.71300000  1.0
  O0+  O6  4  0.13160000  0.75000000  0.64400000  1.0
  O0+  O7  4  0.13870000  0.25000000  0.72000000  1.0
  O0+  O8  4  0.25000000  0.60300000  0.36900000  1.0
  Lv0+  Lv9  2  0.25000000  0.25000000  0.16800000
  0.2222222222222222
  Po0+  Po10  2  0.25000000  0.25000000  0.16800000
  0.5555555555555556
  O0+  O11  2  0.25000000  0.25000000  0.16800000
  0.16666666666666666
  Te0+  Te12  2  0.25000000  0.25000000  0.16800000
  0.05555555555555555
