# generated using pymatgen
data_Ca24Bi0.33333333Sb0.66666667P0.33333333I24N6.66666667
_symmetry_space_group_name_H-M  'I 41 3 2'
_cell_length_a   12.31500000
_cell_length_b   12.31500000
_cell_length_c   12.31500000
_cell_angle_alpha   90.00000000
_cell_angle_beta   90.00000000
_cell_angle_gamma   90.00000000
_symmetry_Int_Tables_number   214
_chemical_formula_structural
Ca24Bi0.33333333Sb0.66666667P0.33333333I24N6.66666667
_chemical_formula_sum
'Ca24 Bi0.33333333 Sb0.66666667 P0.33333333 I24 N6.66666667'
_cell_volume   1867.68335587
_cell_formula_units_Z   1
loop_
 _symmetry_equiv_pos_site_id
 _symmetry_equiv_pos_as_xyz
  1  'x, y, z'
  2  '-y+3/4, x+1/4, z+3/4'
  3  '-x, -y+1/2, z'
  4  'y+1/4, -x+1/4, z+3/4'
  5  'x, -y, -z+1/2'
  6  '-y+1/4, -x+1/4, -z+1/4'
  7  '-x+1/2, y, -z'
  8  'y+1/4, x+3/4, -z+3/4'
  9  'z, x, y'
  10  'z+1/4, -y+1/4, x+3/4'
  11  'z, -x, -y+1/2'
  12  'z+1/4, y+3/4, -x+3/4'
  13  '-z+1/2, x, -y'
  14  '-z+1/4, -y+1/4, -x+1/4'
  15  '-z, -x+1/2, y'
  16  '-z+3/4, y+1/4, x+3/4'
  17  'y, z, x'
  18  'x+1/4, z+3/4, -y+3/4'
  19  '-y+1/2, z, -x'
  20  '-x+3/4, z+1/4, y+3/4'
  21  '-y, -z+1/2, x'
  22  '-x+1/4, -z+1/4, -y+1/4'
  23  'y, -z, -x+1/2'
  24  'x+1/4, -z+1/4, y+3/4'
  25  'x+1/2, y+1/2, z+1/2'
  26  '-y+1/4, x+3/4, z+1/4'
  27  '-x+1/2, -y, z+1/2'
  28  'y+3/4, -x+3/4, z+1/4'
  29  'x+1/2, -y+1/2, -z'
  30  '-y+3/4, -x+3/4, -z+3/4'
  31  '-x, y+1/2, -z+1/2'
  32  'y+3/4, x+1/4, -z+1/4'
  33  'z+1/2, x+1/2, y+1/2'
  34  'z+3/4, -y+3/4, x+1/4'
  35  'z+1/2, -x+1/2, -y'
  36  'z+3/4, y+1/4, -x+1/4'
  37  '-z, x+1/2, -y+1/2'
  38  '-z+3/4, -y+3/4, -x+3/4'
  39  '-z+1/2, -x, y+1/2'
  40  '-z+1/4, y+3/4, x+1/4'
  41  'y+1/2, z+1/2, x+1/2'
  42  'x+3/4, z+1/4, -y+1/4'
  43  '-y, z+1/2, -x+1/2'
  44  '-x+1/4, z+3/4, y+1/4'
  45  '-y+1/2, -z, x+1/2'
  46  '-x+3/4, -z+3/4, -y+3/4'
  47  'y+1/2, -z+1/2, -x'
  48  'x+3/4, -z+3/4, y+1/4'
loop_
 _atom_type_symbol
 _atom_type_oxidation_number
  Ca0+  0.0
  Bi0+  0.0
  Sb0+  0.0
  P0+  0.0
  I0+  0.0
  N0+  0.0
loop_
 _atom_site_type_symbol
 _atom_site_label
 _atom_site_symmetry_multiplicity
 _atom_site_fract_x
 _atom_site_fract_y
 _atom_site_fract_z
 _atom_site_occupancy
  Ca0+  Ca0  24  0.10800000  0.35800000  0.12500000  1.0
  I0+  I1  24  0.11600000  0.13400000  0.62500000  1.0
  N0+  N2  8  0.12500000  0.12500000  0.12500000  0.8333333333333334
  Bi0+  Bi3  8  0.12500000  0.12500000  0.12500000
  0.041666666666666664
  P0+  P4  8  0.12500000  0.12500000  0.12500000
  0.041666666666666664
  Sb0+  Sb5  8  0.12500000  0.12500000  0.12500000
  0.08333333333333333
