# generated using pymatgen
data_Sn12Os2Ru5.25Hs0.5Fe0.25
_symmetry_space_group_name_H-M  'P -4 c 2'
_cell_length_a   6.17200000
_cell_length_b   6.17200000
_cell_length_c   9.91500000
_cell_angle_alpha   90.00000000
_cell_angle_beta   90.00000000
_cell_angle_gamma   90.00000000
_symmetry_Int_Tables_number   116
_chemical_formula_structural   Sn12Os2Ru5.25Hs0.5Fe0.25
_chemical_formula_sum   'Sn12 Os2 Ru5.25 Hs0.5 Fe0.25'
_cell_volume   377.69788536
_cell_formula_units_Z   1
loop_
 _symmetry_equiv_pos_site_id
 _symmetry_equiv_pos_as_xyz
  1  'x, y, z'
  2  'y, -x, -z'
  3  '-x, -y, z'
  4  '-y, x, -z'
  5  '-x, y, z+1/2'
  6  '-y, -x, -z+1/2'
  7  'x, -y, z+1/2'
  8  'y, x, -z+1/2'
loop_
 _atom_site_type_symbol
 _atom_site_label
 _atom_site_symmetry_multiplicity
 _atom_site_fract_x
 _atom_site_fract_y
 _atom_site_fract_z
 _atom_site_occupancy
  Sn  Sn0  8  0.21600000  0.34500000  0.08300000  1.0
  Sn  Sn1  4  0.17700000  0.17700000  0.75000000  1.0
  Os+  Os2  4  0.00000000  0.50000000  0.37500000  0.5
  Ru+  Ru3  4  0.00000000  0.50000000  0.37500000  0.3125
  Hs+  Hs4  4  0.00000000  0.50000000  0.37500000  0.125
  Fe+  Fe5  4  0.00000000  0.50000000  0.37500000  0.0625
  Ru  Ru6  2  0.00000000  0.00000000  0.00000000  1.0
  Ru  Ru7  2  0.50000000  0.50000000  0.25000000  1.0
