# generated using pymatgen
data_Db1.91666667V0.08333333Cr1.75Mo0.08333333W0.16666667S0.41666667O9.58333333
_symmetry_space_group_name_H-M  'P 4/n :2'
_cell_length_a   6.60780000
_cell_length_b   6.60780000
_cell_length_c   4.26460000
_cell_angle_alpha   90.00000000
_cell_angle_beta   90.00000000
_cell_angle_gamma   90.00000000
_symmetry_Int_Tables_number   85
_chemical_formula_structural
;
Db1.91666667V0.08333333Cr1.75Mo0.08333333W0.16666667S0.41666667O9.5833
3333
;
_chemical_formula_sum
;
Db1.91666667 V0.08333333 Cr1.75 Mo0.08333333 W0.16666667 S0.41666667
O9.58333333
;
_cell_volume   186.20531867
_cell_formula_units_Z   1
loop_
 _symmetry_equiv_pos_site_id
 _symmetry_equiv_pos_as_xyz
  1  'x, y, z'
  2  '-y+1/2, x, z'
  3  '-x+1/2, -y+1/2, z'
  4  'y, -x+1/2, z'
  5  '-x, -y, -z'
  6  'y+1/2, -x, -z'
  7  'x+1/2, y+1/2, -z'
  8  '-y, x+1/2, -z'
loop_
 _atom_type_symbol
 _atom_type_oxidation_number
  V0+  0.0
  Cr0+  0.0
  Mo0+  0.0
  W0+  0.0
  S0+  0.0
  O0+  0.0
  Db0+  0.0
loop_
 _atom_site_type_symbol
 _atom_site_label
 _atom_site_symmetry_multiplicity
 _atom_site_fract_x
 _atom_site_fract_y
 _atom_site_fract_z
 _atom_site_occupancy
  Db0+  Db0  2  0.25000000  0.25000000  0.83950000
  0.9583333333333334
  V0+  V1  2  0.25000000  0.25000000  0.83950000
  0.041666666666666664
  Cr0+  Cr2  2  0.25000000  0.75000000  0.50000000  0.875
  W0+  W3  2  0.25000000  0.75000000  0.50000000
  0.08333333333333333
  Mo0+  Mo4  2  0.25000000  0.75000000  0.50000000
  0.041666666666666664
  O0+  O5  2  0.25000000  0.25000000  0.23270000  0.7916666666666666
  S0+  S6  2  0.25000000  0.25000000  0.23270000
  0.20833333333333334
  O0+  O7  8  0.03770000  0.70340000  0.25970000  1.0
