# generated using pymatgen
data_Cd2Si6.5Ge0.5H40C40Fl1I0.25Br0.25N16Cl3.5O8
_symmetry_space_group_name_H-M  'P 4/n :2'
_cell_length_a   16.12840000
_cell_length_b   16.12840000
_cell_length_c   5.21340000
_cell_angle_alpha   90.00000000
_cell_angle_beta   90.00000000
_cell_angle_gamma   90.00000000
_symmetry_Int_Tables_number   85
_chemical_formula_structural
Cd2Si6.5Ge0.5H40C40Fl1I0.25Br0.25N16Cl3.5O8
_chemical_formula_sum
'Cd2 Si6.5 Ge0.5 H40 C40 Fl1 I0.25 Br0.25 N16 Cl3.5 O8'
_cell_volume   1356.13716895
_cell_formula_units_Z   1
loop_
 _symmetry_equiv_pos_site_id
 _symmetry_equiv_pos_as_xyz
  1  'x, y, z'
  2  '-y+1/2, x, z'
  3  '-x+1/2, -y+1/2, z'
  4  'y, -x+1/2, z'
  5  '-x, -y, -z'
  6  'y+1/2, -x, -z'
  7  'x+1/2, y+1/2, -z'
  8  '-y, x+1/2, -z'
loop_
 _atom_site_type_symbol
 _atom_site_label
 _atom_site_symmetry_multiplicity
 _atom_site_fract_x
 _atom_site_fract_y
 _atom_site_fract_z
 _atom_site_occupancy
  Cd  Cd0  2  0.25000000  0.25000000  0.91827000  1.0
  H  H1  8  0.05660000  0.91430000  0.29040000  1.0
  H  H2  8  0.06240000  0.75270000  0.35750000  1.0
  H  H3  8  0.07550000  0.21480000  0.64130000  1.0
  H  H4  8  0.11180000  0.65500000  0.06760000  1.0
  H  H5  8  0.11910000  0.36990000  0.19800000  1.0
  C  C6  8  0.02647000  0.72691000  0.24280000  1.0
  C  C7  8  0.02926000  0.56797000  0.72140000  1.0
  C  C8  8  0.05581000  0.66867000  0.07100000  1.0
  C  C9  8  0.05612000  0.25387000  0.75810000  1.0
  Si+  Si10  8  0.00088000  0.63104000  0.90400000  0.8125
  Fl+  Fl11  8  0.00088000  0.63104000  0.90400000  0.125
  Ge+  Ge12  8  0.00088000  0.63104000  0.90400000  0.0625
  C  C13  8  0.08182000  0.34530000  0.08510000  1.0
  N  N14  8  0.02037000  0.47129000  0.41980000  1.0
  N  N15  8  0.11017000  0.28892000  0.92000000  1.0
  Cl+  Cl16  2  0.25000000  0.75000000  0.50000000  0.75
  Br+  Br17  2  0.25000000  0.75000000  0.50000000  0.125
  I+  I18  2  0.25000000  0.75000000  0.50000000  0.125
  Cl  Cl19  2  0.25000000  0.25000000  0.41877000  1.0
  O  O20  8  0.18366000  0.72930000  0.65670000  1.0
