# generated using pymatgen
data_Si16Lv4Po2Se5(S2O5)3
_symmetry_space_group_name_H-M  'P 4/n :1'
_cell_length_a   10.87553000
_cell_length_b   10.87553000
_cell_length_c   4.51093000
_cell_angle_alpha   90.00000000
_cell_angle_beta   90.00000000
_cell_angle_gamma   90.00000000
_symmetry_Int_Tables_number   85
_chemical_formula_structural   Si16Lv4Po2Se5(S2O5)3
_chemical_formula_sum   'Si16 Lv4 Po2 Se5 S6 O15'
_cell_volume   533.53995679
_cell_formula_units_Z   1
loop_
 _symmetry_equiv_pos_site_id
 _symmetry_equiv_pos_as_xyz
  1  'x, y, z'
  2  '-y+1/2, x+1/2, z'
  3  '-x, -y, z'
  4  'y+1/2, -x+1/2, z'
  5  '-x+1/2, -y+1/2, -z'
  6  'y, -x, -z'
  7  'x+1/2, y+1/2, -z'
  8  '-y, x, -z'
loop_
 _atom_type_symbol
 _atom_type_oxidation_number
  Si0+  0.0
  Po0+  0.0
  Se0+  0.0
  S0+  0.0
  O0+  0.0
  Lv0+  0.0
loop_
 _atom_site_type_symbol
 _atom_site_label
 _atom_site_symmetry_multiplicity
 _atom_site_fract_x
 _atom_site_fract_y
 _atom_site_fract_z
 _atom_site_occupancy
  Si0+  Si0  8  0.06441000  0.72114000  0.64020000  1.0
  Si0+  Si1  8  0.09877000  0.26191000  0.19024000  1.0
  Lv0+  Lv2  8  0.11804000  0.37592000  0.42167000  0.5
  S0+  S3  8  0.11804000  0.37592000  0.42167000  0.375
  O0+  O4  8  0.11804000  0.37592000  0.42167000  0.125
  Se0+  Se5  8  0.16969000  0.78454000  0.84556000  0.625
  S0+  S6  8  0.16969000  0.78454000  0.84556000  0.375
  O0+  O7  8  0.04646000  0.31502000  0.87831000  0.75
  Po0+  Po8  8  0.04646000  0.31502000  0.87831000  0.25
  O0+  O9  8  0.00457000  0.81156000  0.38713000  1.0
