# generated using pymatgen
data_Re0.5Bh2.5Mn3Bi0.75Mc0.25Sb0.5P1N0.5
_symmetry_space_group_name_H-M  'P 3 2 1'
_cell_length_a   6.08200000
_cell_length_b   6.08200000
_cell_length_c   3.45700000
_cell_angle_alpha   90.00000000
_cell_angle_beta   90.00000000
_cell_angle_gamma   120.00000000
_symmetry_Int_Tables_number   150
_chemical_formula_structural   Re0.5Bh2.5Mn3Bi0.75Mc0.25Sb0.5P1N0.5
_chemical_formula_sum   'Re0.5 Bh2.5 Mn3 Bi0.75 Mc0.25 Sb0.5 P1 N0.5'
_cell_volume   110.74467242
_cell_formula_units_Z   1
loop_
 _symmetry_equiv_pos_site_id
 _symmetry_equiv_pos_as_xyz
  1  'x, y, z'
  2  '-y, x-y, z'
  3  '-x+y, -x, z'
  4  'y, x, -z'
  5  'x-y, -y, -z'
  6  '-x, -x+y, -z'
loop_
 _atom_site_type_symbol
 _atom_site_label
 _atom_site_symmetry_multiplicity
 _atom_site_fract_x
 _atom_site_fract_y
 _atom_site_fract_z
 _atom_site_occupancy
  Re+  Re0  3  0.00000000  0.74000000  0.00000000
  0.16666666666666666
  Bh+  Bh1  3  0.00000000  0.74000000  0.00000000
  0.8333333333333334
  Mn  Mn2  3  0.00000000  0.40000000  0.50000000  1.0
  Bi+  Bi3  2  0.33333333  0.66666667  0.12500000  0.375
  Mc+  Mc4  2  0.33333333  0.66666667  0.12500000  0.125
  Sb+  Sb5  2  0.33333333  0.66666667  0.12500000  0.25
  N+  N6  2  0.33333333  0.66666667  0.12500000  0.25
  P  P7  1  0.00000000  0.00000000  0.50000000  1.0
