# generated using pymatgen
data_La3Ga5Sn1Po0.5Se2.0S3O8Lv0.5
_symmetry_space_group_name_H-M  'P 3 2 1'
_cell_length_a   8.25100000
_cell_length_b   8.25100000
_cell_length_c   5.14560000
_cell_angle_alpha   90.00000000
_cell_angle_beta   90.00000000
_cell_angle_gamma   120.00000000
_symmetry_Int_Tables_number   150
_chemical_formula_structural   La3Ga5Sn1Po0.5Se2.0S3O8Lv0.5
_chemical_formula_sum   'La3 Ga5 Sn1 Po0.5 Se2.0 S3 O8 Lv0.5'
_cell_volume   303.37502747
_cell_formula_units_Z   1
loop_
 _symmetry_equiv_pos_site_id
 _symmetry_equiv_pos_as_xyz
  1  'x, y, z'
  2  '-y, x-y, z'
  3  '-x+y, -x, z'
  4  'y, x, -z'
  5  'x-y, -y, -z'
  6  '-x, -x+y, -z'
loop_
 _atom_type_symbol
 _atom_type_oxidation_number
  La0+  0.0
  Ga0+  0.0
  Sn0+  0.0
  Po0+  0.0
  Se0+  0.0
  S0+  0.0
  O0+  0.0
  Lv0+  0.0
loop_
 _atom_site_type_symbol
 _atom_site_label
 _atom_site_symmetry_multiplicity
 _atom_site_fract_x
 _atom_site_fract_y
 _atom_site_fract_z
 _atom_site_occupancy
  La0+  La0  3  0.00000000  0.57163000  0.00000000  1.0
  Ga0+  Ga1  3  0.00000000  0.24340000  0.50000000  1.0
  Ga0+  Ga2  2  0.33333333  0.66666667  0.53130000  1.0
  Sn0+  Sn3  1  0.00000000  0.00000000  0.00000000  1.0
  O0+  O4  6  0.15110000  0.45940000  0.69600000  1.0
  O0+  O5  2  0.33333333  0.66666667  0.18500000  1.0
  S0+  S6  6  0.08370000  0.85680000  0.24200000  0.5
  Se0+  Se7  6  0.08370000  0.85680000  0.24200000
  0.3333333333333333
  Lv0+  Lv8  6  0.08370000  0.85680000  0.24200000
  0.08333333333333333
  Po0+  Po9  6  0.08370000  0.85680000  0.24200000
  0.08333333333333333
