# generated using pymatgen
data_Fr0.33333333K5Rb0.33333333Li0.33333333Po1.33333333Se0.33333333S9.66666667O
_symmetry_space_group_name_H-M  'P 3 2 1'
_cell_length_a   9.82000000
_cell_length_b   9.82000000
_cell_length_c   6.36000000
_cell_angle_alpha   90.00000000
_cell_angle_beta   90.00000000
_cell_angle_gamma   120.00000000
_symmetry_Int_Tables_number   150
_chemical_formula_structural
;
Fr0.33333333K5Rb0.33333333Li0.33333333Po1.33333333Se0.33333333S9.66666
667O12.66666667
;
_chemical_formula_sum
;
Fr0.33333333 K5 Rb0.33333333 Li0.33333333 Po1.33333333 Se0.33333333
S9.66666667 O12.66666667
;
_cell_volume   531.14209582
_cell_formula_units_Z   1
loop_
 _symmetry_equiv_pos_site_id
 _symmetry_equiv_pos_as_xyz
  1  'x, y, z'
  2  '-y, x-y, z'
  3  '-x+y, -x, z'
  4  'y, x, -z'
  5  'x-y, -y, -z'
  6  '-x, -x+y, -z'
loop_
 _atom_site_type_symbol
 _atom_site_label
 _atom_site_symmetry_multiplicity
 _atom_site_fract_x
 _atom_site_fract_y
 _atom_site_fract_z
 _atom_site_occupancy
  K  K0  3  0.00000000  0.61000000  0.00000000  1
  K+  K1  3  0.00000000  0.31000000  0.50000000  0.6666666666666666
  Rb+  Rb2  3  0.00000000  0.31000000  0.50000000
  0.1111111111111111
  Fr+  Fr3  3  0.00000000  0.31000000  0.50000000
  0.1111111111111111
  Li+  Li4  3  0.00000000  0.31000000  0.50000000
  0.1111111111111111
  Se+  Se5  2  0.00000000  0.00000000  0.16000000
  0.16666666666666666
  Po+  Po6  2  0.00000000  0.00000000  0.16000000
  0.6666666666666666
  S+  S7  2  0.00000000  0.00000000  0.16000000  0.16666666666666666
  S  S8  2  0.33333333  0.66666667  0.41000000  1
  S  S9  2  0.33333333  0.66666667  0.73000000  1
  O+  O10  6  0.16000000  0.58000000  0.79000000  0.1111111111111111
  S+  S11  6  0.16000000  0.58000000  0.79000000  0.8888888888888888
  O  O12  6  0.09000000  0.18000000  0.78000000  1
  O  O13  6  0.24000000  0.48000000  0.35000000  1
