# generated using pymatgen
data_K1Cd1Si2.0Sn2.5Au3C1.5N6
_symmetry_space_group_name_H-M  'P 3 1 2'
_cell_length_a   6.81070000
_cell_length_b   6.81070000
_cell_length_c   8.26650000
_cell_angle_alpha   90.00000000
_cell_angle_beta   90.00000000
_cell_angle_gamma   120.00000000
_symmetry_Int_Tables_number   149
_chemical_formula_structural   K1Cd1Si2.0Sn2.5Au3C1.5N6
_chemical_formula_sum   'K1 Cd1 Si2.0 Sn2.5 Au3 C1.5 N6'
_cell_volume   332.07471095
_cell_formula_units_Z   1
loop_
 _symmetry_equiv_pos_site_id
 _symmetry_equiv_pos_as_xyz
  1  'x, y, z'
  2  '-y, x-y, z'
  3  '-x+y, -x, z'
  4  '-y, -x, -z'
  5  '-x+y, y, -z'
  6  'x, x-y, -z'
loop_
 _atom_site_type_symbol
 _atom_site_label
 _atom_site_symmetry_multiplicity
 _atom_site_fract_x
 _atom_site_fract_y
 _atom_site_fract_z
 _atom_site_occupancy
  K  K0  1  0.33330000  0.66670000  0.00000000  1.0
  Cd  Cd1  1  0.00000000  0.00000000  0.00000000  1.0
  Si+  Si2  6  0.35800000  0.00330000  0.71030000
  0.3333333333333333
  Sn+  Sn3  6  0.35800000  0.00330000  0.71030000
  0.4166666666666667
  C+  C4  6  0.35800000  0.00330000  0.71030000  0.25
  Au  Au5  3  0.50333000  0.00666000  0.50000000  1.0
  N  N6  6  0.00250000  0.27330000  0.82940000  1.0
