# generated using pymatgen
data_Fr0.25Rb0.08333333Na0.25Li0.41666667Mn0.16666667Tc0.83333333Ag3C6N6
_symmetry_space_group_name_H-M  'P 3 1 2'
_cell_length_a   6.84310000
_cell_length_b   6.84310000
_cell_length_c   8.21370000
_cell_angle_alpha   90.00000000
_cell_angle_beta   90.00000000
_cell_angle_gamma   120.00000000
_symmetry_Int_Tables_number   149
_chemical_formula_structural
Fr0.25Rb0.08333333Na0.25Li0.41666667Mn0.16666667Tc0.83333333Ag3C6N6
_chemical_formula_sum
;
Fr0.25 Rb0.08333333 Na0.25 Li0.41666667 Mn0.16666667 Tc0.83333333 Ag3
C6 N6
;
_cell_volume   333.10046671
_cell_formula_units_Z   1
loop_
 _symmetry_equiv_pos_site_id
 _symmetry_equiv_pos_as_xyz
  1  'x, y, z'
  2  '-y, x-y, z'
  3  '-x+y, -x, z'
  4  '-y, -x, -z'
  5  '-x+y, y, -z'
  6  'x, x-y, -z'
loop_
 _atom_site_type_symbol
 _atom_site_label
 _atom_site_symmetry_multiplicity
 _atom_site_fract_x
 _atom_site_fract_y
 _atom_site_fract_z
 _atom_site_occupancy
  Fr+  Fr0  1  0.33333333  0.66666667  0.00000000  0.25
  Li+  Li1  1  0.33333333  0.66666667  0.00000000
  0.4166666666666667
  Na+  Na2  1  0.33333333  0.66666667  0.00000000  0.25
  Rb+  Rb3  1  0.33333333  0.66666667  0.00000000
  0.08333333333333333
  Tc+  Tc4  1  0.00000000  0.00000000  0.00000000
  0.8333333333333334
  Mn+  Mn5  1  0.00000000  0.00000000  0.00000000
  0.16666666666666666
  Ag  Ag6  3  0.50462000  0.00924000  0.50000000  1.0
  C  C7  6  0.34790000  0.00400000  0.28460000  1.0
  N  N8  6  0.00300000  0.26020000  0.16540000  1.0
