# generated using pymatgen
data_K1Bh0.5Mn0.5Rg1.5Cu1.5Bi0.5As4.5C6Mc0.5N0.5
_symmetry_space_group_name_H-M  'P 3 1 2'
_cell_length_a   6.86600000
_cell_length_b   6.86600000
_cell_length_c   8.18950000
_cell_angle_alpha   90.00000000
_cell_angle_beta   90.00000000
_cell_angle_gamma   120.00000000
_symmetry_Int_Tables_number   149
_chemical_formula_structural
K1Bh0.5Mn0.5Rg1.5Cu1.5Bi0.5As4.5C6Mc0.5N0.5
_chemical_formula_sum
'K1 Bh0.5 Mn0.5 Rg1.5 Cu1.5 Bi0.5 As4.5 C6 Mc0.5 N0.5'
_cell_volume   334.34560376
_cell_formula_units_Z   1
loop_
 _symmetry_equiv_pos_site_id
 _symmetry_equiv_pos_as_xyz
  1  'x, y, z'
  2  '-y, x-y, z'
  3  '-x+y, -x, z'
  4  '-y, -x, -z'
  5  '-x+y, y, -z'
  6  'x, x-y, -z'
loop_
 _atom_site_type_symbol
 _atom_site_label
 _atom_site_symmetry_multiplicity
 _atom_site_fract_x
 _atom_site_fract_y
 _atom_site_fract_z
 _atom_site_occupancy
  K  K0  1  0.33333333  0.66666667  0.00000000  1.0
  Bh+  Bh1  1  0.00000000  0.00000000  0.00000000  0.5
  Mn+  Mn2  1  0.00000000  0.00000000  0.00000000  0.5
  Rg+  Rg3  3  0.50468000  0.00937000  0.50000000  0.5
  Cu+  Cu4  3  0.50468000  0.00937000  0.50000000  0.5
  C  C5  6  0.34790000  0.00390000  0.28440000  1.0
  As+  As6  6  0.00380000  0.25990000  0.16600000  0.75
  Bi+  Bi7  6  0.00380000  0.25990000  0.16600000
  0.08333333333333333
  Mc+  Mc8  6  0.00380000  0.25990000  0.16600000
  0.08333333333333333
  N+  N9  6  0.00380000  0.25990000  0.16600000  0.08333333333333333
