# generated using pymatgen
data_H36C28Fl1Sn2.66666667Po3Ge0.33333333Te0.33333333Se0.66666667S4N4O4Lv4.0
_symmetry_space_group_name_H-M  'P 43'
_cell_length_a   7.94000000
_cell_length_b   7.94000000
_cell_length_c   15.28800000
_cell_angle_alpha   90.00000000
_cell_angle_beta   90.00000000
_cell_angle_gamma   90.00000000
_symmetry_Int_Tables_number   78
_chemical_formula_structural
;
H36C28Fl1Sn2.66666667Po3Ge0.33333333Te0.33333333Se0.66666667S4N4O4Lv4.
0
;
_chemical_formula_sum
;
H36 C28 Fl1 Sn2.66666667 Po3 Ge0.33333333 Te0.33333333 Se0.66666667 S4
N4 O4 Lv4.0
;
_cell_volume   963.81055680
_cell_formula_units_Z   1
loop_
 _symmetry_equiv_pos_site_id
 _symmetry_equiv_pos_as_xyz
  1  'x, y, z'
  2  '-y, x, z+3/4'
  3  '-x, -y, z+1/2'
  4  'y, -x, z+1/4'
loop_
 _atom_site_type_symbol
 _atom_site_label
 _atom_site_symmetry_multiplicity
 _atom_site_fract_x
 _atom_site_fract_y
 _atom_site_fract_z
 _atom_site_occupancy
  H  H0  4  0.09390000  0.65430000  0.99070000  1.0
  H  H1  4  0.10170000  0.85420000  0.87910000  1.0
  H  H2  4  0.12020000  0.77040000  0.73650000  1.0
  H  H3  4  0.12040000  0.28950000  0.81040000  1.0
  H  H4  4  0.12380000  0.48990000  0.70040000  1.0
  H  H5  4  0.25000000  0.37300000  0.10130000  1.0
  H  H6  4  0.28160000  0.44450000  0.37850000  1.0
  H  H7  4  0.33160000  0.66390000  0.54920000  1.0
  H  H8  4  0.44770000  0.53140000  0.59560000  1.0
  C  C9  4  0.09960000  0.62100000  0.93240000  1.0
  C  C10  4  0.10270000  0.45260000  0.91050000  1.0
  C  C11  4  0.10510000  0.74000000  0.86560000  1.0
  C  C12  4  0.11490000  0.40330000  0.82440000  1.0
  C  C13  4  0.11540000  0.68970000  0.78060000  1.0
  C  C14  4  0.11880000  0.52270000  0.75870000  1.0
  Fl+  Fl15  4  0.31050000  0.57740000  0.26650000  0.25
  Ge+  Ge16  4  0.31050000  0.57740000  0.26650000
  0.08333333333333333
  Sn+  Sn17  4  0.31050000  0.57740000  0.26650000
  0.6666666666666666
  C  C18  4  0.35300000  0.43790000  0.32790000  1.0
  S  S19  4  0.08988000  0.30118000  0.99415000  1.0
  N  N20  4  0.26550000  0.32590000  0.05170000  1.0
  O  O21  4  0.03830000  0.64980000  0.55420000  1.0
  Po+  Po22  4  0.08780000  0.13840000  0.95650000  0.75
  Se+  Se23  4  0.08780000  0.13840000  0.95650000
  0.08333333333333333
  Lv+  Lv24  4  0.08780000  0.13840000  0.95650000
  0.08333333333333333
  Te+  Te25  4  0.08780000  0.13840000  0.95650000
  0.08333333333333333
  Lv+  Lv26  4  0.26520000  0.55790000  0.19160000
  0.9166666666666666
  Se+  Se27  4  0.26520000  0.55790000  0.19160000
  0.08333333333333333
