# generated using pymatgen
data_Si1.25H48Pb1C53.75N8
_symmetry_space_group_name_H-M  'P 43'
_cell_length_a   8.87920000
_cell_length_b   8.87920000
_cell_length_c   14.39100000
_cell_angle_alpha   90.00000000
_cell_angle_beta   90.00000000
_cell_angle_gamma   90.00000000
_symmetry_Int_Tables_number   78
_chemical_formula_structural   Si1.25H48Pb1C53.75N8
_chemical_formula_sum   'Si1.25 H48 Pb1 C53.75 N8'
_cell_volume   1134.58921228
_cell_formula_units_Z   1
loop_
 _symmetry_equiv_pos_site_id
 _symmetry_equiv_pos_as_xyz
  1  'x, y, z'
  2  '-y, x, z+3/4'
  3  '-x, -y, z+1/2'
  4  'y, -x, z+1/4'
loop_
 _atom_site_type_symbol
 _atom_site_label
 _atom_site_symmetry_multiplicity
 _atom_site_fract_x
 _atom_site_fract_y
 _atom_site_fract_z
 _atom_site_occupancy
  H  H0  4  0.00940000  0.09310000  0.37350000  1.0
  H  H1  4  0.04060000  0.60180000  0.75980000  1.0
  H  H2  4  0.07810000  0.77770000  0.14050000  1.0
  H  H3  4  0.08470000  0.57840000  0.41710000  1.0
  H  H4  4  0.14260000  0.49410000  0.05770000  1.0
  H  H5  4  0.19260000  0.42560000  0.61230000  1.0
  H  H6  4  0.19640000  0.78670000  0.70180000  1.0
  H  H7  4  0.21140000  0.58790000  0.34150000  1.0
  H  H8  4  0.21440000  0.38190000  0.23830000  1.0
  H  H9  4  0.25440000  0.56860000  0.44640000  1.0
  H  H10  4  0.28340000  0.39710000  0.93500000  1.0
  H  H11  4  0.41780000  0.55180000  0.83830000  1.0
  Pb+  Pb12  4  0.19370000  0.28680000  0.72446000  0.25
  Si+  Si13  4  0.19370000  0.28680000  0.72446000  0.3125
  C+  C14  4  0.19370000  0.28680000  0.72446000  0.4375
  C  C15  4  0.00030000  0.68300000  0.72745000  1.0
  C  C16  4  0.03070000  0.91440000  0.64540000  1.0
  C  C17  4  0.05210000  0.18116000  0.82652000  1.0
  C  C18  4  0.07740000  0.87670000  0.38009000  1.0
  C  C19  4  0.09280000  0.79300000  0.69320000  1.0
  C  C20  4  0.15270000  0.30700000  0.21385000  1.0
  C  C21  4  0.18450000  0.61410000  0.40400000  1.0
  C  C22  4  0.18910000  0.78140000  0.41495000  1.0
  C  C23  4  0.19860000  0.55670000  0.01904000  1.0
  C  C24  4  0.20270000  0.71150000  0.03181000  1.0
  C  C25  4  0.25430000  0.36900000  0.65116000  1.0
  C  C26  4  0.28240000  0.50040000  0.94558000  1.0
  C  C27  4  0.36450000  0.59360000  0.88755000  1.0
  N  N28  4  0.04579000  0.27181000  0.75394000  1.0
  N  N29  4  0.13684000  0.80483000  0.09598000  1.0
