# generated using pymatgen
data_Np2Al0.5In4Nh3.5H32
_symmetry_space_group_name_H-M  'P 42/n m c :1'
_cell_length_a   8.55900000
_cell_length_b   8.55900000
_cell_length_c   6.01700000
_cell_angle_alpha   90.00000000
_cell_angle_beta   90.00000000
_cell_angle_gamma   90.00000000
_symmetry_Int_Tables_number   137
_chemical_formula_structural   Np2Al0.5In4Nh3.5H32
_chemical_formula_sum   'Np2 Al0.5 In4 Nh3.5 H32'
_cell_volume   440.78424618
_cell_formula_units_Z   1
loop_
 _symmetry_equiv_pos_site_id
 _symmetry_equiv_pos_as_xyz
  1  'x, y, z'
  2  '-y+1/2, x+1/2, z+1/2'
  3  '-x, -y, z'
  4  'y+1/2, -x+1/2, z+1/2'
  5  'x+1/2, -y+1/2, -z+1/2'
  6  '-y, -x, -z'
  7  '-x+1/2, y+1/2, -z+1/2'
  8  'y, x, -z'
  9  '-x+1/2, -y+1/2, -z+1/2'
  10  'y, -x, -z'
  11  'x+1/2, y+1/2, -z+1/2'
  12  '-y, x, -z'
  13  '-x, y, z'
  14  'y+1/2, x+1/2, z+1/2'
  15  'x, -y, z'
  16  '-y+1/2, -x+1/2, z+1/2'
loop_
 _atom_type_symbol
 _atom_type_oxidation_number
  Np0+  0.0
  Al0+  0.0
  In0+  0.0
  H0+  0.0
  Nh0+  0.0
loop_
 _atom_site_type_symbol
 _atom_site_label
 _atom_site_symmetry_multiplicity
 _atom_site_fract_x
 _atom_site_fract_y
 _atom_site_fract_z
 _atom_site_occupancy
  Np0+  Np0  2  0.00000000  0.00000000  0.00000000  1.0
  Al0+  Al1  8  0.00000000  0.23500000  0.23300000  0.0625
  In0+  In2  8  0.00000000  0.23500000  0.23300000  0.5
  Nh0+  Nh3  8  0.00000000  0.23500000  0.23300000  0.4375
  H0+  H4  16  0.10000000  0.15000000  0.24000000  1.0
  H0+  H5  8  0.00000000  0.26000000  0.05000000  1.0
  H0+  H6  8  0.00000000  0.33000000  0.33000000  1.0
