# generated using pymatgen
data_Zn2Bi0.75As1P0.25N2
_symmetry_space_group_name_H-M  'P -4 n 2'
_cell_length_a   6.58500000
_cell_length_b   6.58500000
_cell_length_c   6.58500000
_cell_angle_alpha   90.00000000
_cell_angle_beta   90.00000000
_cell_angle_gamma   90.00000000
_symmetry_Int_Tables_number   118
_chemical_formula_structural   Zn2Bi0.75As1P0.25N2
_chemical_formula_sum   'Zn2 Bi0.75 As1 P0.25 N2'
_cell_volume   285.54025162
_cell_formula_units_Z   1
loop_
 _symmetry_equiv_pos_site_id
 _symmetry_equiv_pos_as_xyz
  1  'x, y, z'
  2  'y, -x, -z'
  3  '-x, -y, z'
  4  '-y, x, -z'
  5  '-x+1/2, y+1/2, z+1/2'
  6  '-y+1/2, -x+1/2, -z+1/2'
  7  'x+1/2, -y+1/2, z+1/2'
  8  'y+1/2, x+1/2, -z+1/2'
loop_
 _atom_site_type_symbol
 _atom_site_label
 _atom_site_symmetry_multiplicity
 _atom_site_fract_x
 _atom_site_fract_y
 _atom_site_fract_z
 _atom_site_occupancy
  Zn  Zn0  2  0.00000000  0.00000000  0.00000000  1
  As+  As1  4  0.16000000  0.66000000  0.75000000  0.25
  P+  P2  4  0.16000000  0.66000000  0.75000000  0.0625
  Bi+  Bi3  4  0.16000000  0.66000000  0.75000000  0.1875
  N+  N4  4  0.16000000  0.66000000  0.75000000  0.5
