# generated using pymatgen
data_Y1.5Lu3.5Lr0.5Sc0.5C9N18
_symmetry_space_group_name_H-M  'R 3 2 :H'
_cell_length_a   6.27320000
_cell_length_b   6.27320000
_cell_length_c   14.68100000
_cell_angle_alpha   90.00000000
_cell_angle_beta   90.00000000
_cell_angle_gamma   120.00000000
_symmetry_Int_Tables_number   155
_chemical_formula_structural   Y1.5Lu3.5Lr0.5Sc0.5C9N18
_chemical_formula_sum   'Y1.5 Lu3.5 Lr0.5 Sc0.5 C9 N18'
_cell_volume   500.33920934
_cell_formula_units_Z   1
loop_
 _symmetry_equiv_pos_site_id
 _symmetry_equiv_pos_as_xyz
  1  'x, y, z'
  2  '-y, x-y, z'
  3  '-x+y, -x, z'
  4  'y, x, -z'
  5  'x-y, -y, -z'
  6  '-x, -x+y, -z'
  7  'x+2/3, y+1/3, z+1/3'
  8  '-y+2/3, x-y+1/3, z+1/3'
  9  '-x+y+2/3, -x+1/3, z+1/3'
  10  'y+2/3, x+1/3, -z+1/3'
  11  'x-y+2/3, -y+1/3, -z+1/3'
  12  '-x+2/3, -x+y+1/3, -z+1/3'
  13  'x+1/3, y+2/3, z+2/3'
  14  '-y+1/3, x-y+2/3, z+2/3'
  15  '-x+y+1/3, -x+2/3, z+2/3'
  16  'y+1/3, x+2/3, -z+2/3'
  17  'x-y+1/3, -y+2/3, -z+2/3'
  18  '-x+1/3, -x+y+2/3, -z+2/3'
loop_
 _atom_site_type_symbol
 _atom_site_label
 _atom_site_symmetry_multiplicity
 _atom_site_fract_x
 _atom_site_fract_y
 _atom_site_fract_z
 _atom_site_occupancy
  Lu+  Lu0  6  0.00000000  0.00000000  0.17160000
  0.5833333333333334
  Y+  Y1  6  0.00000000  0.00000000  0.17160000  0.25
  Lr+  Lr2  6  0.00000000  0.00000000  0.17160000
  0.08333333333333333
  Sc+  Sc3  6  0.00000000  0.00000000  0.17160000
  0.08333333333333333
  C  C4  9  0.00000000  0.70250000  0.00000000  1.0
  N  N5  18  0.00453333  0.59726667  0.58796667  1.0
