# generated using pymatgen
data_Ba7.5Ra1.0Sr1Ca1.0Mg42Be1.5Hg18
_symmetry_space_group_name_H-M  'R 3 2 :H'
_cell_length_a   8.35100000
_cell_length_b   8.35100000
_cell_length_c   25.84500000
_cell_angle_alpha   90.00000000
_cell_angle_beta   90.00000000
_cell_angle_gamma   120.00000000
_symmetry_Int_Tables_number   155
_chemical_formula_structural   Ba7.5Ra1.0Sr1Ca1.0Mg42Be1.5Hg18
_chemical_formula_sum   'Ba7.5 Ra1.0 Sr1 Ca1.0 Mg42 Be1.5 Hg18'
_cell_volume   1560.93254479
_cell_formula_units_Z   1
loop_
 _symmetry_equiv_pos_site_id
 _symmetry_equiv_pos_as_xyz
  1  'x, y, z'
  2  '-y, x-y, z'
  3  '-x+y, -x, z'
  4  'y, x, -z'
  5  'x-y, -y, -z'
  6  '-x, -x+y, -z'
  7  'x+2/3, y+1/3, z+1/3'
  8  '-y+2/3, x-y+1/3, z+1/3'
  9  '-x+y+2/3, -x+1/3, z+1/3'
  10  'y+2/3, x+1/3, -z+1/3'
  11  'x-y+2/3, -y+1/3, -z+1/3'
  12  '-x+2/3, -x+y+1/3, -z+1/3'
  13  'x+1/3, y+2/3, z+2/3'
  14  '-y+1/3, x-y+2/3, z+2/3'
  15  '-x+y+1/3, -x+2/3, z+2/3'
  16  'y+1/3, x+2/3, -z+2/3'
  17  'x-y+1/3, -y+2/3, -z+2/3'
  18  '-x+1/3, -x+y+2/3, -z+2/3'
loop_
 _atom_site_type_symbol
 _atom_site_label
 _atom_site_symmetry_multiplicity
 _atom_site_fract_x
 _atom_site_fract_y
 _atom_site_fract_z
 _atom_site_occupancy
  Ba+  Ba0  6  0.00000000  0.00000000  0.41700000  0.75
  Sr+  Sr1  6  0.00000000  0.00000000  0.41700000
  0.08333333333333333
  Ra+  Ra2  6  0.00000000  0.00000000  0.41700000
  0.16666666666666666
  Ba+  Ba3  6  0.00000000  0.00000000  0.13900000  0.5
  Be+  Be4  6  0.00000000  0.00000000  0.13900000  0.25
  Ca+  Ca5  6  0.00000000  0.00000000  0.13900000
  0.16666666666666666
  Sr+  Sr6  6  0.00000000  0.00000000  0.13900000
  0.08333333333333333
  Mg  Mg7  18  0.00000000  0.33300000  0.05500000  1.0
  Mg  Mg8  18  0.00000000  0.66700000  0.11100000  1.0
  Mg  Mg9  6  0.00000000  0.00000000  0.30500000  1.0
  Hg  Hg10  9  0.00000000  0.33300000  0.50000000  1.0
  Hg  Hg11  9  0.00000000  0.66700000  0.00000000  1.0
