# generated using pymatgen
data_Na4Rf0.66666667Zr1.33333333Si12Lv1.0Te1S5.33333333O28.66666667
_symmetry_space_group_name_H-M  'P b m 2'
_cell_length_a   7.40000000
_cell_length_b   14.40000000
_cell_length_c   7.05000000
_cell_angle_alpha   90.00000000
_cell_angle_beta   90.00000000
_cell_angle_gamma   90.00000000
_symmetry_Int_Tables_number   28
_chemical_formula_structural
Na4Rf0.66666667Zr1.33333333Si12Lv1.0Te1S5.33333333O28.66666667
_chemical_formula_sum
'Na4 Rf0.66666667 Zr1.33333333 Si12 Lv1.0 Te1 S5.33333333 O28.66666667'
_cell_volume   751.24800000
_cell_formula_units_Z   1
loop_
 _symmetry_equiv_pos_site_id
 _symmetry_equiv_pos_as_xyz
  1  'x, y, z'
  2  '-x, -y, z'
  3  'x, -y+1/2, z'
  4  '-x, y+1/2, z'
loop_
 _atom_type_symbol
 _atom_type_oxidation_number
  Na0+  0.0
  Zr0+  0.0
  Si0+  0.0
  Te0+  0.0
  S0+  0.0
  O0+  0.0
  Lv0+  0.0
  Rf0+  0.0
loop_
 _atom_site_type_symbol
 _atom_site_label
 _atom_site_symmetry_multiplicity
 _atom_site_fract_x
 _atom_site_fract_y
 _atom_site_fract_z
 _atom_site_occupancy
  Na0+  Na0  2  0.00000000  0.00000000  0.51000000  1.0
  Na0+  Na1  2  0.03000000  0.75000000  0.08000000  1.0
  Rf0+  Rf2  2  0.00000000  0.00000000  0.00000000
  0.3333333333333333
  Zr0+  Zr3  2  0.00000000  0.00000000  0.00000000
  0.6666666666666666
  Si0+  Si4  4  0.27000000  0.15000000  0.25000000  1.0
  Si0+  Si5  4  0.29000000  0.14000000  0.71000000  1.0
  Si0+  Si6  4  0.41000000  0.64000000  0.00200000  1.0
  Lv0+  Lv7  4  0.28000000  0.58000000  0.49000000
  0.08333333333333333
  S0+  S8  4  0.28000000  0.58000000  0.49000000  0.9166666666666666
  O0+  O9  4  0.10000000  0.08000000  0.23000000  1.0
  O0+  O10  4  0.14000000  0.08000000  0.81000000  1.0
  O0+  O11  4  0.22000000  0.59000000  0.01000000  1.0
  O0+  O12  4  0.30000000  0.13000000  0.52000000  1.0
  O0+  O13  4  0.47000000  0.12000000  0.79000000  1.0
  O0+  O14  2  0.13000000  0.75000000  0.37000000  1.0
  O0+  O15  2  0.22000000  0.25000000  0.82000000  1.0
  O0+  O16  2  0.24000000  0.25000000  0.23000000  1.0
  S0+  S17  4  0.48000000  0.12000000  0.16000000
  0.4166666666666667
  Lv0+  Lv18  4  0.48000000  0.12000000  0.16000000
  0.16666666666666666
  O0+  O19  4  0.48000000  0.12000000  0.16000000
  0.16666666666666666
  Te0+  Te20  4  0.48000000  0.12000000  0.16000000  0.25
  O0+  O21  2  0.37000000  0.75000000  0.03000000  1.0
