# generated using pymatgen
data_Na8Ca4Bi1.5Sb1.5Te0.5P13S0.5O67Lv2
_symmetry_space_group_name_H-M  'P m a 2'
_cell_length_a   27.88000000
_cell_length_b   7.53600000
_cell_length_c   7.37800000
_cell_angle_alpha   90.00000000
_cell_angle_beta   90.00000000
_cell_angle_gamma   90.00000000
_symmetry_Int_Tables_number   28
_chemical_formula_structural   Na8Ca4Bi1.5Sb1.5Te0.5P13S0.5O67Lv2
_chemical_formula_sum   'Na8 Ca4 Bi1.5 Sb1.5 Te0.5 P13 S0.5 O67 Lv2'
_cell_volume   1550.14495104
_cell_formula_units_Z   1
loop_
 _symmetry_equiv_pos_site_id
 _symmetry_equiv_pos_as_xyz
  1  'x, y, z'
  2  '-x, -y, z'
  3  '-x+1/2, y, z'
  4  'x+1/2, -y, z'
loop_
 _atom_type_symbol
 _atom_type_oxidation_number
  Na+  1.0
  Ca2+  2.0
  Bi5+  5.0
  Sb5+  5.0
  Te2-  -2.0
  P5+  5.0
  S2-  -2.0
  O2-  -2.0
  Lv2-  -2.0
loop_
 _atom_site_type_symbol
 _atom_site_label
 _atom_site_symmetry_multiplicity
 _atom_site_fract_x
 _atom_site_fract_y
 _atom_site_fract_z
 _atom_site_occupancy
  Na+  Na0  4  0.12350000  0.02610000  0.10480000  1.0
  Na+  Na1  4  0.13200000  0.47810000  0.61420000  1.0
  Ca2+  Ca2  2  0.00000000  0.00000000  0.00000000  1.0
  Ca2+  Ca3  2  0.25000000  0.37180000  0.61830000  1.0
  Bi5+  Bi4  4  0.04968000  0.29250000  0.34140000  0.375
  P5+  P5  4  0.04968000  0.29250000  0.34140000  0.25
  Sb5+  Sb6  4  0.04968000  0.29250000  0.34140000  0.375
  P5+  P7  4  0.05558000  0.68840000  0.33130000  1.0
  P5+  P8  4  0.19704000  0.43740000  0.18890000  1.0
  P5+  P9  4  0.19791000  0.71700000  0.91290000  1.0
  O2-  O10  4  0.00050000  0.28160000  0.82790000  1.0
  O2-  O11  4  0.00360000  0.70300000  0.42420000  1.0
  O2-  O12  4  0.05110000  0.17110000  0.18220000  1.0
  O2-  O13  4  0.05510000  0.48710000  0.25970000  1.0
  O2-  O14  4  0.05780000  0.80070000  0.16710000  1.0
  O2-  O15  4  0.07310000  0.00950000  0.80220000  1.0
  O2-  O16  4  0.08220000  0.26020000  0.49540000  1.0
  O2-  O17  4  0.08380000  0.48650000  0.87680000  1.0
  O2-  O18  4  0.09070000  0.71050000  0.47720000  1.0
  O2-  O19  4  0.15480000  0.98770000  0.39910000  1.0
  O2-  O20  4  0.16310000  0.31500000  0.09670000  1.0
  O2-  O21  4  0.16460000  0.86560000  0.89310000  1.0
  O2-  O22  4  0.18970000  0.63570000  0.11120000  1.0
  O2-  O23  4  0.19540000  0.45320000  0.38780000  1.0
  O2-  O24  4  0.19860000  0.56990000  0.77730000  1.0
  O2-  O25  2  0.25000000  0.09260000  0.45930000  1.0
  O2-  O26  2  0.25000000  0.39160000  0.12120000  1.0
  O2-  O27  2  0.25000000  0.80170000  0.93310000  1.0
  S2-  S28  4  0.18530000  0.21050000  0.75210000  0.125
  Lv2-  Lv29  4  0.18530000  0.21050000  0.75210000  0.5
  O2-  O30  4  0.18530000  0.21050000  0.75210000  0.25
  Te2-  Te31  4  0.18530000  0.21050000  0.75210000  0.125
